/*---------------------------------------------------------------------------*\
| =========                 |                                                 |
| \\      /  F ield         | OpenFOAM: The Open Source CFD Toolbox           |
|  \\    /   O peration     | Version:  3.0.1                                 |
|   \\  /    A nd           | Web:      www.OpenFOAM.org                      |
|    \\/     M anipulation  |                                                 |
\*---------------------------------------------------------------------------*/
Build  : 3.0.1-d8a290b55d28
Exec   : interDyMFoam
Date   : May 31 2016
Time   : 15:40:19
Host   : "evankielley-VirtualBox"
PID    : 20591
Case   : /home/evankielley/OpenFOAM/evankielley-3.0.1/run/case205
nProcs : 1
sigFpe : Enabling floating point exception trapping (FOAM_SIGFPE).
fileModificationChecking : Monitoring run-time modified files using timeStampMaster
allowSystemOperations : Allowing user-supplied system call operations

// * * * * * * * * * * * * * * * * * * * * * * * * * * * * * * * * * * * * * //
Create time

Create mesh for time = 0

Using #calcEntry at line 40 in file "/home/evankielley/OpenFOAM/evankielley-3.0.1/run/case205/constant/dynamicMeshDict.sixDoFRigidBodyMotionCoeffs"
Using #codeStream with "/home/evankielley/OpenFOAM/evankielley-3.0.1/run/case205/dynamicCode/platforms/linux64GccDPInt64Opt/lib/libcodeStream_a0640cbac1206dd19ab725737df7229c42819b1b.so"
Creating new library in "dynamicCode/_a0640cbac1206dd19ab725737df7229c42819b1b/platforms/linux64GccDPInt64Opt/lib/libcodeStream_a0640cbac1206dd19ab725737df7229c42819b1b.so"
Invoking "wmake -s libso /home/evankielley/OpenFOAM/evankielley-3.0.1/run/case205/dynamicCode/_a0640cbac1206dd19ab725737df7229c42819b1b"
wmakeLnInclude: linking include files to ./lnInclude
Making dependency list for source file codeStreamTemplate.C
'/home/evankielley/OpenFOAM/evankielley-3.0.1/run/case205/dynamicCode/_a0640cbac1206dd19ab725737df7229c42819b1b/../platforms/linux64GccDPInt64Opt/lib/libcodeStream_a0640cbac1206dd19ab725737df7229c42819b1b.so' is up to date.
Using #codeStream at line 43 in file "/home/evankielley/OpenFOAM/evankielley-3.0.1/run/case205/constant/dynamicMeshDict.sixDoFRigidBodyMotionCoeffs"
Using #codeStream with "/home/evankielley/OpenFOAM/evankielley-3.0.1/run/case205/dynamicCode/platforms/linux64GccDPInt64Opt/lib/libcodeStream_cf371c8fdd012c5da10c80ca370db81476b8f387.so"
Creating new library in "dynamicCode/_cf371c8fdd012c5da10c80ca370db81476b8f387/platforms/linux64GccDPInt64Opt/lib/libcodeStream_cf371c8fdd012c5da10c80ca370db81476b8f387.so"
Invoking "wmake -s libso /home/evankielley/OpenFOAM/evankielley-3.0.1/run/case205/dynamicCode/_cf371c8fdd012c5da10c80ca370db81476b8f387"
wmakeLnInclude: linking include files to ./lnInclude
Making dependency list for source file codeStreamTemplate.C
'/home/evankielley/OpenFOAM/evankielley-3.0.1/run/case205/dynamicCode/_cf371c8fdd012c5da10c80ca370db81476b8f387/../platforms/linux64GccDPInt64Opt/lib/libcodeStream_cf371c8fdd012c5da10c80ca370db81476b8f387.so' is up to date.
Selecting dynamicFvMesh dynamicMotionSolverFvMesh
Using #calcEntry at line 40 in file "/home/evankielley/OpenFOAM/evankielley-3.0.1/run/case205/constant/dynamicMeshDict.sixDoFRigidBodyMotionCoeffs"
Using #codeStream with "/home/evankielley/OpenFOAM/evankielley-3.0.1/run/case205/dynamicCode/platforms/linux64GccDPInt64Opt/lib/libcodeStream_a0640cbac1206dd19ab725737df7229c42819b1b.so"
Using #codeStream at line 43 in file "/home/evankielley/OpenFOAM/evankielley-3.0.1/run/case205/constant/dynamicMeshDict.sixDoFRigidBodyMotionCoeffs"
Using #codeStream with "/home/evankielley/OpenFOAM/evankielley-3.0.1/run/case205/dynamicCode/platforms/linux64GccDPInt64Opt/lib/libcodeStream_cf371c8fdd012c5da10c80ca370db81476b8f387.so"
Selecting motion solver: sixDoFRigidBodyMotion
Using #calcEntry at line 40 in file "/home/evankielley/OpenFOAM/evankielley-3.0.1/run/case205/constant/dynamicMeshDict.sixDoFRigidBodyMotionCoeffs"
Using #codeStream with "/home/evankielley/OpenFOAM/evankielley-3.0.1/run/case205/dynamicCode/platforms/linux64GccDPInt64Opt/lib/libcodeStream_a0640cbac1206dd19ab725737df7229c42819b1b.so"
Using #codeStream at line 43 in file "/home/evankielley/OpenFOAM/evankielley-3.0.1/run/case205/constant/dynamicMeshDict.sixDoFRigidBodyMotionCoeffs"
Using #codeStream with "/home/evankielley/OpenFOAM/evankielley-3.0.1/run/case205/dynamicCode/platforms/linux64GccDPInt64Opt/lib/libcodeStream_cf371c8fdd012c5da10c80ca370db81476b8f387.so"
Selecting sixDoFSolver Newmark

PIMPLE: no residual control data found. Calculations will employ 3 corrector loops

Reading field p_rgh

Reading field U

Reading/calculating face flux field phi

Reading transportProperties

Selecting incompressible transport model Newtonian
Selecting incompressible transport model Newtonian
Selecting turbulence model type RAS
Selecting RAS turbulence model kEpsilon
kEpsilonCoeffs
{
    Cmu             0.09;
    C1              1.44;
    C2              1.92;
    C3              -0.33;
    sigmak          1;
    sigmaEps        1.3;
}


Reading g

Reading hRef
Calculating field g.h

No MRF models present

No finite volume options present

GAMGPCG:  Solving for pcorr, Initial residual = 0, Final residual = 0, No Iterations 0
time step continuity errors : sum local = 0, global = 0, cumulative = 0
Reading/calculating face velocity Uf

Courant Number mean: 0 max: 0

Starting time loop

Courant Number mean: 0 max: 0
Interface Courant Number mean: 0 max: 0
deltaT = 0.0111111111111
Time = 0.0111111

PIMPLE: iteration 1

Restraint horizontalSpring:  attachmentPt - anchor (-3.5 0 0) spring length 3.5 force (0.024 -0 -0)
6-DoF rigid body motion
    Centre of rotation: (0.500000259259 0.5 0.497886320444)
    Centre of mass: (0.500000259259 0.5 0.497886320444)
    Orientation: (1 6.83960909387e-18 -1.62599004477e-17 -6.83960909387e-18 1 -1.35350192988e-17 1.62599004477e-17 1.35350192988e-17 1)
    Linear velocity: (4.66666666667e-05 2.76052329144e-17 -0.38046232)
    Angular velocity: (2.43630347378e-15 -2.92678208058e-15 -1.2311296369e-15)
Execution time for mesh.update() = 0.04 s
GAMGPCG:  Solving for pcorr, Initial residual = 1, Final residual = 6.14353416888e-07, No Iterations 6
time step continuity errors : sum local = 2.59985164154e-11, global = -1.22952710416e-11, cumulative = -1.22952710416e-11
smoothSolver:  Solving for alpha.water, Initial residual = 0.000179258039372, Final residual = 2.65105116152e-09, No Iterations 1
Phase-1 volume fraction = 0.499999997349  Min(alpha.water) = 0  Max(alpha.water) = 1.00000000018
MULES: Correcting alpha.water
MULES: Correcting alpha.water
Phase-1 volume fraction = 0.499999997349  Min(alpha.water) = 0  Max(alpha.water) = 1.00000000018
GAMG:  Solving for p_rgh, Initial residual = 1, Final residual = 0.00430635987703, No Iterations 1
time step continuity errors : sum local = 0.00243480701548, global = -0.00203869876924, cumulative = -0.00203869878153
PIMPLE: iteration 2

Restraint horizontalSpring:  attachmentPt - anchor (-3.49999974074 0 -0.00211367955556) spring length 3.50000037898 force (0.0240000259415 -0 1.44938194066e-05)
6-DoF rigid body motion
    Centre of rotation: (0.500000341787 0.499999833417 0.499555440651)
    Centre of mass: (0.500000341787 0.499999833417 0.499555440651)
    Orientation: (0.999999999977 3.00196710661e-09 6.73828281188e-06 -2.95461396137e-09 0.999999999975 -7.02747963454e-06 -6.73828283281e-06 7.02747961447e-06 0.999999999953)
    Linear velocity: (6.15216447127e-05 -2.99849644113e-05 -0.0800206827916)
    Angular velocity: (0.00126494633135 0.00121289090918 -5.36092296106e-07)
Execution time for mesh.update() = 0.05 s
GAMGPCG:  Solving for pcorr, Initial residual = 1, Final residual = 2.3771735234e-06, No Iterations 5
time step continuity errors : sum local = 5.85012273415e-09, global = -2.59078272221e-09, cumulative = -0.00203870137231
smoothSolver:  Solving for alpha.water, Initial residual = 0.000143421824505, Final residual = 8.04651740833e-09, No Iterations 1
Phase-1 volume fraction = 0.500000008029  Min(alpha.water) = 0  Max(alpha.water) = 1.00000000134
Applying the previous iteration compression flux
MULES: Correcting alpha.water
MULES: Correcting alpha.water
MULES: Correcting alpha.water
Phase-1 volume fraction = 0.500000008029  Min(alpha.water) = -7.62375593648e-54  Max(alpha.water) = 1.00000000134
GAMG:  Solving for p_rgh, Initial residual = 0.000740617226981, Final residual = 3.85574366945e-06, No Iterations 5
time step continuity errors : sum local = 7.11322117239e-05, global = -7.11322117239e-05, cumulative = -0.00210983358404
PIMPLE: iteration 3

Restraint horizontalSpring:  attachmentPt - anchor (-3.49999965821 -1.66583135619e-07 -0.000444559348842) spring length 3.49999968645 force (0.0239999747221 1.14228326697e-09 3.04840405046e-06)
6-DoF rigid body motion
    Centre of rotation: (0.500000355969 0.499999945682 0.499956238858)
    Centre of mass: (0.500000355969 0.499999945682 0.499956238858)
    Orientation: (0.999999999999 -1.02086984231e-08 1.22592862895e-06 1.02103779461e-08 0.999999999999 -1.37000063472e-06 -1.22592861496e-06 1.37000064724e-06 0.999999999998)
    Linear velocity: (6.40743942024e-05 -9.77729292823e-06 -0.00787700548577)
    Angular velocity: (0.000246600116053 0.000220667151197 1.83771687323e-06)
Execution time for mesh.update() = 0.05 s
GAMGPCG:  Solving for pcorr, Initial residual = 1, Final residual = 1.13658066306e-06, No Iterations 5
time step continuity errors : sum local = 1.08489514618e-10, global = -5.30858562825e-11, cumulative = -0.00210983363712
smoothSolver:  Solving for alpha.water, Initial residual = 3.47283454908e-05, Final residual = 2.07493267049e-10, No Iterations 1
Phase-1 volume fraction = 0.500000000207  Min(alpha.water) = -1.39726637605e-67  Max(alpha.water) = 1.00000000012
Applying the previous iteration compression flux
MULES: Correcting alpha.water
MULES: Correcting alpha.water
MULES: Correcting alpha.water
Phase-1 volume fraction = 0.500000000207  Min(alpha.water) = -3.77627756366e-14  Max(alpha.water) = 1.00000000012
GAMGPCG:  Solving for p_rgh, Initial residual = 0.000153224830235, Final residual = 2.51309967959e-09, No Iterations 4
time step continuity errors : sum local = 5.45335746813e-08, global = 1.75482976846e-08, cumulative = -0.00210981608883
smoothSolver:  Solving for epsilon, Initial residual = 0.0118006501022, Final residual = 8.89995500267e-08, No Iterations 4
smoothSolver:  Solving for k, Initial residual = 1, Final residual = 1.71487903227e-07, No Iterations 6
ExecutionTime = 1.04 s  ClockTime = 2 s

Courant Number mean: 0.000131061476929 max: 0.00332760427086
Interface Courant Number mean: 7.80302347445e-06 max: 0.00332760427086
deltaT = 0.0126984126984
Time = 0.0238095

PIMPLE: iteration 1

Restraint horizontalSpring:  attachmentPt - anchor (-3.49999964403 -5.43182940294e-08 -4.37611415876e-05) spring length 3.4999996443 force (0.0239999715425 3.72467898151e-10 3.00076074168e-07)
6-DoF rigid body motion
    Centre of rotation: (0.500002113979 0.499999729777 0.499789952215)
    Centre of mass: (0.500002113979 0.499999729777 0.499789952215)
    Orientation: (0.999999999982 -5.08242538034e-08 6.05610931205e-06 5.08647637764e-08 0.999999999978 -6.6891086478e-06 -6.05610897194e-06 6.68910895572e-06 0.999999999959)
    Linear velocity: (0.000212812258294 -2.42276853518e-05 -0.0183131408295)
    Angular velocity: (0.000591159428689 0.000540086270157 4.56231596732e-06)
Execution time for mesh.update() = 0.05 s
GAMGPCG:  Solving for pcorr, Initial residual = 1, Final residual = 7.8909777041e-06, No Iterations 5
time step continuity errors : sum local = 4.49213880774e-11, global = -1.23558052903e-11, cumulative = -0.00210981610118
smoothSolver:  Solving for alpha.water, Initial residual = 1.43059807981e-05, Final residual = 2.46188908702e-11, No Iterations 1
Phase-1 volume fraction = 0.500000000183  Min(alpha.water) = -1.67644883381e-41  Max(alpha.water) = 1.00000001097
Applying the previous iteration compression flux
MULES: Correcting alpha.water
MULES: Correcting alpha.water
MULES: Correcting alpha.water
Phase-1 volume fraction = 0.500000000183  Min(alpha.water) = -1.67644883381e-41  Max(alpha.water) = 1.00001291391
GAMG:  Solving for p_rgh, Initial residual = 0.000115371171704, Final residual = 6.07915836991e-07, No Iterations 2
time step continuity errors : sum local = 1.01208915101e-05, global = 8.11269955258e-07, cumulative = -0.00210900483123
PIMPLE: iteration 2

Restraint horizontalSpring:  attachmentPt - anchor (-3.49999788602 -2.70222918042e-07 -0.000210047784859) spring length 3.49999789232 force (0.0239998313427 1.85294525e-09 1.44031841581e-06)
6-DoF rigid body motion
    Centre of rotation: (0.500002095766 0.499999746162 0.499885567173)
    Centre of mass: (0.500002095766 0.499999746162 0.499885567173)
    Orientation: (0.999999999987 -4.64862037696e-08 5.04575567521e-06 4.65131365983e-08 0.999999999986 -5.33771955883e-06 -5.04575542701e-06 5.33771979345e-06 0.999999999973)
    Linear velocity: (0.000209943591433 -2.16470150729e-05 -0.00325378489086)
    Angular velocity: (0.000378315639963 0.000380955580966 3.87807440186e-06)
Execution time for mesh.update() = 0.06 s
GAMGPCG:  Solving for pcorr, Initial residual = 1, Final residual = 3.85079280302e-06, No Iterations 5
time step continuity errors : sum local = 5.90525176362e-11, global = 6.57351761116e-12, cumulative = -0.00210900482465
smoothSolver:  Solving for alpha.water, Initial residual = 8.94424566524e-06, Final residual = 6.73860055336e-12, No Iterations 1
Phase-1 volume fraction = 0.500000000214  Min(alpha.water) = -2.4395910398e-14  Max(alpha.water) = 1.00000001093
Applying the previous iteration compression flux
MULES: Correcting alpha.water
MULES: Correcting alpha.water
MULES: Correcting alpha.water
Phase-1 volume fraction = 0.500000000214  Min(alpha.water) = -1.67636933393e-41  Max(alpha.water) = 1.00002185996
GAMG:  Solving for p_rgh, Initial residual = 6.00882526632e-05, Final residual = 2.79512503982e-07, No Iterations 2
time step continuity errors : sum local = 4.6500042932e-06, global = 5.54102927564e-07, cumulative = -0.00210845072173
PIMPLE: iteration 3

Restraint horizontalSpring:  attachmentPt - anchor (-3.49999790423 -2.53837709907e-07 -0.000114432826519) spring length 3.49999790611 force (0.0239998324756 1.74059033189e-09 7.84677231615e-07)
6-DoF rigid body motion
    Centre of rotation: (0.500002095763 0.49999975442 0.499843596204)
    Centre of mass: (0.500002095763 0.49999975442 0.499843596204)
    Orientation: (0.999999999988 -4.6015112782e-08 4.94506121944e-06 4.6042056651e-08 0.999999999985 -5.4486421594e-06 -4.94506096864e-06 5.44864238702e-06 0.999999999973)
    Linear velocity: (0.000209943257154 -2.03463772613e-05 -0.00986421254797)
    Angular velocity: (0.000395785948863 0.000365096204338 3.80380756014e-06)
Execution time for mesh.update() = 0.05 s
GAMGPCG:  Solving for pcorr, Initial residual = 1, Final residual = 1.98190866849e-06, No Iterations 5
time step continuity errors : sum local = 1.58895468023e-11, global = -8.43488173372e-12, cumulative = -0.00210845073016
smoothSolver:  Solving for alpha.water, Initial residual = 4.87846555266e-06, Final residual = 5.38884108767e-12, No Iterations 1
Phase-1 volume fraction = 0.500000000202  Min(alpha.water) = -2.42853388767e-14  Max(alpha.water) = 1.00000001096
Applying the previous iteration compression flux
MULES: Correcting alpha.water
MULES: Correcting alpha.water
MULES: Correcting alpha.water
Phase-1 volume fraction = 0.500000000202  Min(alpha.water) = -1.67636414298e-41  Max(alpha.water) = 1.00001127141
GAMGPCG:  Solving for p_rgh, Initial residual = 2.68154702666e-05, Final residual = 1.71998935062e-09, No Iterations 3
time step continuity errors : sum local = 2.86084331589e-08, global = 7.7777746506e-09, cumulative = -0.00210844295239
smoothSolver:  Solving for epsilon, Initial residual = 0.0121206782583, Final residual = 4.24215792031e-07, No Iterations 3
smoothSolver:  Solving for k, Initial residual = 0.643250262622, Final residual = 9.06115480795e-08, No Iterations 5
ExecutionTime = 1.83 s  ClockTime = 3 s

Courant Number mean: 0.000252454097853 max: 0.00692598602225
Interface Courant Number mean: 1.63579257618e-05 max: 0.00550383579774
deltaT = 0.0126984126984
Time = 0.0365079

PIMPLE: iteration 1

Restraint horizontalSpring:  attachmentPt - anchor (-3.49999790424 -2.45579692082e-07 -0.00015640379577) spring length 3.49999790773 force (0.0239998325945 1.68396429365e-09 1.07247633237e-06)
6-DoF rigid body motion
    Centre of rotation: (0.500005683106 0.499999504497 0.499826469433)
    Centre of mass: (0.500005683106 0.499999504497 0.499826469433)
    Orientation: (0.999999999966 -9.21534651868e-08 8.29402008777e-06 9.22256777964e-08 0.999999999962 -8.70658729136e-06 -8.29401928511e-06 8.70658805598e-06 0.999999999928)
    Linear velocity: (0.0003550631717 -1.90166009646e-05 0.00716674610876)
    Angular velocity: (0.000117340468992 0.000162364753008 3.46685211665e-06)
Execution time for mesh.update() = 0.05 s
GAMGPCG:  Solving for pcorr, Initial residual = 1, Final residual = 7.88270991832e-06, No Iterations 5
time step continuity errors : sum local = 6.06754977555e-11, global = 1.43325233542e-11, cumulative = -0.00210844293805
smoothSolver:  Solving for alpha.water, Initial residual = 1.94577167316e-06, Final residual = 1.39722373792e-12, No Iterations 1
Phase-1 volume fraction = 0.500000000201  Min(alpha.water) = -1.67572017579e-41  Max(alpha.water) = 1.00001127065
Applying the previous iteration compression flux
MULES: Correcting alpha.water
MULES: Correcting alpha.water
MULES: Correcting alpha.water
Phase-1 volume fraction = 0.500000000201  Min(alpha.water) = -1.67572017579e-41  Max(alpha.water) = 1.00001708976
GAMG:  Solving for p_rgh, Initial residual = 4.97492637788e-05, Final residual = 2.70713450906e-07, No Iterations 2
time step continuity errors : sum local = 4.50867145974e-06, global = -2.54250571627e-07, cumulative = -0.00210869718862
PIMPLE: iteration 2

Restraint horizontalSpring:  attachmentPt - anchor (-3.49999431689 -4.9550336334e-07 -0.000173530566813) spring length 3.4999943212 force (0.0239995456662 3.39767854446e-09 1.18990329287e-06)
6-DoF rigid body motion
    Centre of rotation: (0.500005690855 0.499999501871 0.499642971459)
    Centre of mass: (0.500005690855 0.499999501871 0.499642971459)
    Orientation: (0.999999999958 -9.36897884079e-08 9.18987154162e-06 9.37875751594e-08 0.999999999943 -1.06407094448e-05 -9.18987054418e-06 1.06407103063e-05 0.999999999901)
    Linear velocity: (0.000356283636386 -1.94301730296e-05 -0.0217341847762)
    Angular velocity: (0.00042196471259 0.000303461350162 3.71011661209e-06)
Execution time for mesh.update() = 0.05 s
GAMGPCG:  Solving for pcorr, Initial residual = 1, Final residual = 4.18154527405e-06, No Iterations 5
time step continuity errors : sum local = 4.84978005217e-11, global = -1.63104475029e-11, cumulative = -0.00210869720494
smoothSolver:  Solving for alpha.water, Initial residual = 1.59168783768e-05, Final residual = 3.67463925787e-11, No Iterations 1
Phase-1 volume fraction = 0.500000000165  Min(alpha.water) = -1.67574956875e-41  Max(alpha.water) = 1.0000112703
Applying the previous iteration compression flux
MULES: Correcting alpha.water
MULES: Correcting alpha.water
MULES: Correcting alpha.water
Phase-1 volume fraction = 0.500000000165  Min(alpha.water) = -1.67574956875e-41  Max(alpha.water) = 1.00001271705
GAMG:  Solving for p_rgh, Initial residual = 9.03851159731e-05, Final residual = 4.51434769864e-07, No Iterations 2
time step continuity errors : sum local = 7.51628096123e-06, global = -1.54727545784e-06, cumulative = -0.00211024448039
PIMPLE: iteration 3

Restraint horizontalSpring:  attachmentPt - anchor (-3.49999430915 -4.98129217763e-07 -0.000357028540685) spring length 3.49999432736 force (0.0239995460635 3.41568415585e-09 2.44815338293e-06)
6-DoF rigid body motion
    Centre of rotation: (0.500005690391 0.49999949795 0.499723207682)
    Centre of mass: (0.500005690391 0.49999949795 0.499723207682)
    Orientation: (0.999999999955 -9.37859781054e-08 9.46389323291e-06 9.38841784933e-08 0.999999999946 -1.03763204384e-05 -9.46389225925e-06 1.03763213265e-05 0.999999999901)
    Linear velocity: (0.000356210552937 -2.00476736754e-05 -0.0090969796874)
    Angular velocity: (0.00038032344485 0.000346619766942 3.72572458137e-06)
Execution time for mesh.update() = 0.05 s
GAMGPCG:  Solving for pcorr, Initial residual = 1, Final residual = 4.36939383745e-06, No Iterations 5
time step continuity errors : sum local = 4.68345927211e-11, global = 1.75769429146e-11, cumulative = -0.00211024446282
smoothSolver:  Solving for alpha.water, Initial residual = 9.04173986472e-06, Final residual = 1.3632428912e-11, No Iterations 1
Phase-1 volume fraction = 0.500000000214  Min(alpha.water) = -1.67575012897e-41  Max(alpha.water) = 1.00001127049
Applying the previous iteration compression flux
MULES: Correcting alpha.water
MULES: Correcting alpha.water
MULES: Correcting alpha.water
Phase-1 volume fraction = 0.500000000214  Min(alpha.water) = -1.67575012897e-41  Max(alpha.water) = 1.000011394
GAMGPCG:  Solving for p_rgh, Initial residual = 5.4354069497e-05, Final residual = 3.88439978966e-09, No Iterations 3
time step continuity errors : sum local = 6.47114609188e-08, global = -1.47628866419e-08, cumulative = -0.0021102592257
smoothSolver:  Solving for epsilon, Initial residual = 0.00942584467852, Final residual = 4.35623590171e-07, No Iterations 3
smoothSolver:  Solving for k, Initial residual = 0.41258300588, Final residual = 5.71119832797e-08, No Iterations 5
ExecutionTime = 2.61 s  ClockTime = 4 s

Courant Number mean: 0.000275369843634 max: 0.00939149448019
Interface Courant Number mean: 1.54636198189e-05 max: 0.00558816722211
deltaT = 0.0126984126984
Time = 0.0492063

PIMPLE: iteration 1

Restraint horizontalSpring:  attachmentPt - anchor (-3.49999430961 -5.02049856743e-07 -0.000276792317899) spring length 3.49999432055 force (0.0239995455693 3.44256800129e-09 1.89797161339e-06)
6-DoF rigid body motion
    Centre of rotation: (0.500011151612 0.499999240926 0.499491314027)
    Centre of mass: (0.500011151612 0.499999240926 0.499491314027)
    Orientation: (0.999999999888 -1.42039783151e-07 1.49328965354e-05 1.42291285399e-07 0.999999999858 -1.68421613002e-05 -1.4932894141e-05 1.68421634232e-05 0.999999999747)
    Linear velocity: (0.000503931818263 -2.04336709833e-05 -0.0274262709894)
    Angular velocity: (0.000638046592775 0.000514748140705 3.88581107981e-06)
Execution time for mesh.update() = 0.05 s
GAMGPCG:  Solving for pcorr, Initial residual = 1, Final residual = 9.69876379231e-06, No Iterations 5
time step continuity errors : sum local = 6.17121071662e-11, global = -1.47264844793e-11, cumulative = -0.00211025924043
smoothSolver:  Solving for alpha.water, Initial residual = 1.99172978406e-05, Final residual = 7.51618434944e-11, No Iterations 1
Phase-1 volume fraction = 0.500000000139  Min(alpha.water) = -1.67512937123e-41  Max(alpha.water) = 1.00001141711
Applying the previous iteration compression flux
MULES: Correcting alpha.water
MULES: Correcting alpha.water
MULES: Correcting alpha.water
Phase-1 volume fraction = 0.500000000139  Min(alpha.water) = -1.67512937123e-41  Max(alpha.water) = 1.00000937091
GAMG:  Solving for p_rgh, Initial residual = 0.000151411564333, Final residual = 7.29818210207e-07, No Iterations 2
time step continuity errors : sum local = 1.217378565e-05, global = -2.08549801795e-06, cumulative = -0.00211234473845
PIMPLE: iteration 2

Restraint horizontalSpring:  attachmentPt - anchor (-3.49998884839 -7.59074267276e-07 -0.00050868597299) spring length 3.49998888535 force (0.0239991105748 5.20490437655e-09 3.48801423161e-06)
6-DoF rigid body motion
    Centre of rotation: (0.50001110972 0.499999242093 0.499717562802)
    Centre of mass: (0.50001110972 0.499999242093 0.499717562802)
    Orientation: (0.999999999905 -1.41054915416e-07 1.37544512562e-05 1.4125457195e-07 0.999999999895 -1.45157761555e-05 -1.37544492073e-05 1.4515778097e-05 0.9999999998)
    Linear velocity: (0.000497333834376 -2.02498331705e-05 0.00820791112228)
    Angular velocity: (0.000271640927222 0.000329143017236 3.72774060491e-06)
Execution time for mesh.update() = 0.06 s
GAMGPCG:  Solving for pcorr, Initial residual = 1, Final residual = 4.80235631131e-06, No Iterations 5
time step continuity errors : sum local = 9.91990964284e-11, global = 2.95920898964e-11, cumulative = -0.00211234470885
smoothSolver:  Solving for alpha.water, Initial residual = 1.97463712377e-05, Final residual = 3.07750141966e-11, No Iterations 1
Phase-1 volume fraction = 0.500000000243  Min(alpha.water) = -1.6751589938e-41  Max(alpha.water) = 1.00001141745
Applying the previous iteration compression flux
MULES: Correcting alpha.water
MULES: Correcting alpha.water
MULES: Correcting alpha.water
Phase-1 volume fraction = 0.500000000243  Min(alpha.water) = -1.6751589938e-41  Max(alpha.water) = 1.00000937107
GAMG:  Solving for p_rgh, Initial residual = 0.000118861348672, Final residual = 5.33907456943e-07, No Iterations 2
time step continuity errors : sum local = 8.92141890161e-06, global = 4.52491063139e-07, cumulative = -0.00211189221779
PIMPLE: iteration 3

Restraint horizontalSpring:  attachmentPt - anchor (-3.49998889028 -7.5790704307e-07 -0.000282437197678) spring length 3.49998890168 force (0.0239991120559 5.19690108306e-09 1.93664670612e-06)
6-DoF rigid body motion
    Centre of rotation: (0.500011110592 0.49999925002 0.499622635101)
    Centre of mass: (0.500011110592 0.49999925002 0.499622635101)
    Orientation: (0.999999999909 -1.42242377416e-07 1.34844065523e-05 1.4244215332e-07 0.99999999989 -1.48153280406e-05 -1.34844044435e-05 1.481532996e-05 0.999999999799)
    Linear velocity: (0.000497471151592 -1.90012708352e-05 -0.00674320188957)
    Angular velocity: (0.000318820351303 0.000286610972645 3.91412482182e-06)
Execution time for mesh.update() = 0.06 s
GAMGPCG:  Solving for pcorr, Initial residual = 1, Final residual = 3.9572288314e-06, No Iterations 5
time step continuity errors : sum local = 4.94141898136e-11, global = -1.23877880769e-11, cumulative = -0.00211189223018
smoothSolver:  Solving for alpha.water, Initial residual = 8.20818565124e-06, Final residual = 1.31677688145e-11, No Iterations 1
Phase-1 volume fraction = 0.500000000201  Min(alpha.water) = -1.67516190996e-41  Max(alpha.water) = 1.00001141701
Applying the previous iteration compression flux
MULES: Correcting alpha.water
MULES: Correcting alpha.water
MULES: Correcting alpha.water
Phase-1 volume fraction = 0.500000000201  Min(alpha.water) = -1.67516190996e-41  Max(alpha.water) = 1.00000937315
GAMGPCG:  Solving for p_rgh, Initial residual = 4.13212699418e-05, Final residual = 8.66679184603e-09, No Iterations 2
time step continuity errors : sum local = 1.44851183807e-07, global = -2.64072874345e-08, cumulative = -0.00211191863747
smoothSolver:  Solving for epsilon, Initial residual = 0.00897842303932, Final residual = 4.6879597721e-07, No Iterations 3
smoothSolver:  Solving for k, Initial residual = 0.276182302816, Final residual = 8.00091063466e-07, No Iterations 4
ExecutionTime = 3.39 s  ClockTime = 5 s

Courant Number mean: 0.000340468994969 max: 0.0113023568407
Interface Courant Number mean: 1.80725600315e-05 max: 0.00651412781733
deltaT = 0.0126984126984
Time = 0.0619048

PIMPLE: iteration 1

Restraint horizontalSpring:  attachmentPt - anchor (-3.49998888941 -7.4997966315e-07 -0.000377364899341) spring length 3.49998890975 force (0.0239991126406 5.14254387167e-09 2.58755756434e-06)
6-DoF rigid body motion
    Centre of rotation: (0.500018279586 0.49999902637 0.499689853997)
    Centre of mass: (0.500018279586 0.49999902637 0.499689853997)
    Orientation: (0.999999999881 -1.92638800186e-07 1.54155095366e-05 1.92891564964e-07 0.999999999866 -1.63967840677e-05 -1.54155063758e-05 1.63967870392e-05 0.999999999747)
    Linear velocity: (0.000631645391496 -1.62236632608e-05 0.0173301780588)
    Angular velocity: (-6.97409007229e-05 1.75376098399e-05 4.02822073773e-06)
Execution time for mesh.update() = 0.05 s
GAMGPCG:  Solving for pcorr, Initial residual = 1, Final residual = 7.80968899531e-07, No Iterations 6
time step continuity errors : sum local = 5.82775481577e-12, global = -4.17429757203e-13, cumulative = -0.00211191863788
smoothSolver:  Solving for alpha.water, Initial residual = 9.01818320253e-06, Final residual = 4.83988970834e-12, No Iterations 1
Phase-1 volume fraction = 0.500000000204  Min(alpha.water) = -1.67462244789e-41  Max(alpha.water) = 1.00000940704
Applying the previous iteration compression flux
MULES: Correcting alpha.water
MULES: Correcting alpha.water
MULES: Correcting alpha.water
Phase-1 volume fraction = 0.500000000204  Min(alpha.water) = -1.67462244789e-41  Max(alpha.water) = 1.00000927614
GAMG:  Solving for p_rgh, Initial residual = 3.71946436105e-05, Final residual = 2.04102040776e-07, No Iterations 2
time step continuity errors : sum local = 3.40951310955e-06, global = -4.22935695221e-08, cumulative = -0.00211196093145
PIMPLE: iteration 2

Restraint horizontalSpring:  attachmentPt - anchor (-3.49998172041 -9.7363003837e-07 -0.000310146003028) spring length 3.49998173416 force (0.0239985386382 6.67594860821e-09 2.12659706013e-06)
6-DoF rigid body motion
    Centre of rotation: (0.500018285918 0.499999022623 0.499426009629)
    Centre of mass: (0.500018285918 0.499999022623 0.499426009629)
    Orientation: (0.999999999849 -1.90680996019e-07 1.73799102596e-05 1.91012151541e-07 0.999999999818 -1.90539262267e-05 -1.73799066232e-05 1.90539295436e-05 0.999999999667)
    Linear velocity: (0.00063264264119 -1.68137669154e-05 -0.0242253099121)
    Angular velocity: (0.00034875898867 0.000326930723452 3.72537484709e-06)
Execution time for mesh.update() = 0.04 s
GAMGPCG:  Solving for pcorr, Initial residual = 1, Final residual = 6.03231371036e-06, No Iterations 5
time step continuity errors : sum local = 8.05372071311e-11, global = -2.29937956118e-11, cumulative = -0.00211196095445
smoothSolver:  Solving for alpha.water, Initial residual = 2.2652618706e-05, Final residual = 6.43726271306e-11, No Iterations 1
Phase-1 volume fraction = 0.500000000137  Min(alpha.water) = -1.6746664693e-41  Max(alpha.water) = 1.00000940674
Applying the previous iteration compression flux
MULES: Correcting alpha.water
MULES: Correcting alpha.water
MULES: Correcting alpha.water
Phase-1 volume fraction = 0.500000000137  Min(alpha.water) = -1.6746664693e-41  Max(alpha.water) = 1.00000940674
GAMG:  Solving for p_rgh, Initial residual = 0.000102765764041, Final residual = 5.08071555567e-07, No Iterations 2
time step continuity errors : sum local = 8.50092612195e-06, global = -1.69002093876e-06, cumulative = -0.00211365097539
PIMPLE: iteration 3

Restraint horizontalSpring:  attachmentPt - anchor (-3.49998171408 -9.77376728217e-07 -0.000573990371097) spring length 3.49998176115 force (0.0239985405692 6.7016393169e-09 3.93571519293e-06)
6-DoF rigid body motion
    Centre of rotation: (0.500018281661 0.499999015935 0.49954089229)
    Centre of mass: (0.500018281661 0.499999015935 0.49954089229)
    Orientation: (0.999999999841 -1.86956483156e-07 1.78097078613e-05 1.87289219304e-07 0.999999999825 -1.86828527982e-05 -1.78097043653e-05 1.86828561308e-05 0.999999999667)
    Linear velocity: (0.000631972146095 -1.78671922333e-05 -0.00613129077014)
    Angular velocity: (0.000290314913615 0.000394623858222 3.14002741717e-06)
Execution time for mesh.update() = 0.05 s
GAMGPCG:  Solving for pcorr, Initial residual = 1, Final residual = 4.66408677556e-06, No Iterations 5
time step continuity errors : sum local = 5.95749480062e-11, global = 1.85279367365e-11, cumulative = -0.00211365095686
smoothSolver:  Solving for alpha.water, Initial residual = 1.04356987392e-05, Final residual = 2.28126582887e-11, No Iterations 1
Phase-1 volume fraction = 0.500000000223  Min(alpha.water) = -1.67466570708e-41  Max(alpha.water) = 1.00000940685
Applying the previous iteration compression flux
MULES: Correcting alpha.water
MULES: Correcting alpha.water
MULES: Correcting alpha.water
Phase-1 volume fraction = 0.500000000223  Min(alpha.water) = -1.67466570708e-41  Max(alpha.water) = 1.00000940685
GAMGPCG:  Solving for p_rgh, Initial residual = 7.00647102694e-05, Final residual = 4.60126520852e-09, No Iterations 3
time step continuity errors : sum local = 7.7018400473e-08, global = -2.21804239962e-08, cumulative = -0.00211367313728
smoothSolver:  Solving for epsilon, Initial residual = 0.00917654681638, Final residual = 5.09797709305e-07, No Iterations 3
smoothSolver:  Solving for k, Initial residual = 0.208437303224, Final residual = 6.0746199086e-07, No Iterations 4
ExecutionTime = 4.19 s  ClockTime = 5 s

Courant Number mean: 0.000354616920874 max: 0.0140641800102
Interface Courant Number mean: 2.19904680629e-05 max: 0.00657879995978
deltaT = 0.0126984126984
Time = 0.0746032

PIMPLE: iteration 1

Restraint horizontalSpring:  attachmentPt - anchor (-3.49998171834 -9.84065142928e-07 -0.000459107709878) spring length 3.49998174845 force (0.0239985396696 6.74749992159e-09 3.14799203962e-06)
6-DoF rigid body motion
    Centre of rotation: (0.500027159901 0.499998788009 0.499308262224)
    Centre of mass: (0.500027159901 0.499998788009 0.499308262224)
    Orientation: (0.999999999663 -2.16762115525e-07 2.5942922419e-05 2.17397258806e-07 0.9999999997 -2.44823332792e-05 -2.59429171044e-05 2.44823389109e-05 0.999999999364)
    Linear velocity: (0.000766350716247 -1.80311527928e-05 -0.0305079446181)
    Angular velocity: (0.000623103363683 0.000886357334632 1.58207916261e-06)
Execution time for mesh.update() = 0.06 s
GAMGPCG:  Solving for pcorr, Initial residual = 1, Final residual = 7.94822645678e-07, No Iterations 6
time step continuity errors : sum local = 5.82928390989e-12, global = 4.01000928765e-13, cumulative = -0.00211367313688
smoothSolver:  Solving for alpha.water, Initial residual = 2.00252054858e-05, Final residual = 8.94400966425e-11, No Iterations 1
Phase-1 volume fraction = 0.500000000133  Min(alpha.water) = -1.67420140821e-41  Max(alpha.water) = 1.0000093967
Applying the previous iteration compression flux
MULES: Correcting alpha.water
MULES: Correcting alpha.water
MULES: Correcting alpha.water
Phase-1 volume fraction = 0.500000000133  Min(alpha.water) = -1.67420140821e-41  Max(alpha.water) = 1.00000877172
GAMG:  Solving for p_rgh, Initial residual = 0.000156997803533, Final residual = 7.62561428429e-07, No Iterations 2
time step continuity errors : sum local = 1.27715135293e-05, global = -2.2204807163e-06, cumulative = -0.0021158936176
PIMPLE: iteration 2

Restraint horizontalSpring:  attachmentPt - anchor (-3.4999728401 -1.21199114311e-06 -0.000691737775836) spring length 3.49997290846 force (0.0239978322079 8.31011022617e-09 4.74295311271e-06)
6-DoF rigid body motion
    Centre of rotation: (0.500027115854 0.499998791707 0.49959803334)
    Centre of mass: (0.500027115854 0.499998791707 0.49959803334)
    Orientation: (0.999999999722 -2.18978685931e-07 2.35667682709e-05 2.19494672086e-07 0.99999999976 -2.18946501493e-05 -2.35667634708e-05 2.1894655316e-05 0.999999999483)
    Linear velocity: (0.000759413232364 -1.74487604514e-05 0.0151310061342)
    Angular velocity: (0.000215543277449 0.00051211304986 1.9222699925e-06)
Execution time for mesh.update() = 0.06 s
GAMGPCG:  Solving for pcorr, Initial residual = 1, Final residual = 5.03064640895e-06, No Iterations 5
time step continuity errors : sum local = 1.18888804702e-10, global = 3.43082710392e-11, cumulative = -0.00211589358329
smoothSolver:  Solving for alpha.water, Initial residual = 2.51735915116e-05, Final residual = 5.46018644549e-11, No Iterations 1
Phase-1 volume fraction = 0.500000000273  Min(alpha.water) = -1.67422099821e-41  Max(alpha.water) = 1.00000939705
Applying the previous iteration compression flux
MULES: Correcting alpha.water
MULES: Correcting alpha.water
MULES: Correcting alpha.water
Phase-1 volume fraction = 0.500000000273  Min(alpha.water) = -1.67422099821e-41  Max(alpha.water) = 1.00000878087
GAMG:  Solving for p_rgh, Initial residual = 0.000135972741791, Final residual = 6.1267259607e-07, No Iterations 2
time step continuity errors : sum local = 1.02691061789e-05, global = 6.89116662484e-07, cumulative = -0.00211520446663
PIMPLE: iteration 3

Restraint horizontalSpring:  attachmentPt - anchor (-3.49997288415 -1.20829341393e-06 -0.000401966659948) spring length 3.49997290723 force (0.0239978324201 8.28475643146e-09 2.75611522237e-06)
6-DoF rigid body motion
    Centre of rotation: (0.500027120153 0.49999880253 0.499476079652)
    Centre of mass: (0.500027120153 0.49999880253 0.499476079652)
    Orientation: (0.999999999732 -2.19738044863e-07 2.31392713009e-05 2.20254178683e-07 0.999999999751 -2.23055345492e-05 -2.31392663937e-05 2.23055396398e-05 0.999999999484)
    Linear velocity: (0.000760090324205 -1.57441419712e-05 -0.00407669972817)
    Angular velocity: (0.000280257572996 0.000444782273907 2.04038916243e-06)
Execution time for mesh.update() = 0.04 s
GAMGPCG:  Solving for pcorr, Initial residual = 1, Final residual = 4.20743481382e-06, No Iterations 5
time step continuity errors : sum local = 6.20909414949e-11, global = -1.52295030234e-11, cumulative = -0.00211520448186
smoothSolver:  Solving for alpha.water, Initial residual = 1.05295054517e-05, Final residual = 1.69941731253e-11, No Iterations 1
Phase-1 volume fraction = 0.500000000206  Min(alpha.water) = -1.67422371337e-41  Max(alpha.water) = 1.00000939698
Applying the previous iteration compression flux
MULES: Correcting alpha.water
MULES: Correcting alpha.water
MULES: Correcting alpha.water
Phase-1 volume fraction = 0.500000000206  Min(alpha.water) = -1.67422371337e-41  Max(alpha.water) = 1.00000878182
GAMGPCG:  Solving for p_rgh, Initial residual = 3.60152388561e-05, Final residual = 8.14031137601e-10, No Iterations 3
time step continuity errors : sum local = 1.36431578568e-08, global = 3.29557055176e-09, cumulative = -0.00211520118629
smoothSolver:  Solving for epsilon, Initial residual = 0.0104656133032, Final residual = 5.50061409546e-07, No Iterations 3
smoothSolver:  Solving for k, Initial residual = 0.167905494544, Final residual = 4.91783162822e-07, No Iterations 4
ExecutionTime = 5 s  ClockTime = 6 s

Courant Number mean: 0.000396383640086 max: 0.0145749956034
Interface Courant Number mean: 2.36533329067e-05 max: 0.00694479603739
deltaT = 0.0126984126984
Time = 0.0873016

PIMPLE: iteration 1

Restraint horizontalSpring:  attachmentPt - anchor (-3.49997287985 -1.19747043947e-06 -0.000523920347963) spring length 3.49997291906 force (0.023997833256 8.21054817338e-09 3.59230016388e-06)
6-DoF rigid body motion
    Centre of rotation: (0.500037545486 0.499998631553 0.499607979337)
    Centre of mass: (0.500037545486 0.499998631553 0.499607979337)
    Orientation: (0.999999999652 -2.42744186746e-07 2.6390863038e-05 2.43367115022e-07 0.999999999721 -2.36039366115e-05 -2.63908573009e-05 2.3603943026e-05 0.999999999373)
    Linear velocity: (0.000881899697612 -1.11846047526e-05 0.0248509001129)
    Angular velocity: (-7.57591508695e-05 6.73433363003e-05 1.59516767262e-06)
Execution time for mesh.update() = 0.06 s
GAMGPCG:  Solving for pcorr, Initial residual = 1, Final residual = 8.08992243539e-07, No Iterations 6
time step continuity errors : sum local = 6.67017536222e-12, global = -4.67983055956e-13, cumulative = -0.00211520118675
smoothSolver:  Solving for alpha.water, Initial residual = 1.51643134018e-05, Final residual = 1.62476857931e-11, No Iterations 1
Phase-1 volume fraction = 0.500000000219  Min(alpha.water) = -1.67381527347e-41  Max(alpha.water) = 1.00000879002
Applying the previous iteration compression flux
MULES: Correcting alpha.water
MULES: Correcting alpha.water
MULES: Correcting alpha.water
Phase-1 volume fraction = 0.500000000219  Min(alpha.water) = -1.67381527347e-41  Max(alpha.water) = 1.00000831629
GAMG:  Solving for p_rgh, Initial residual = 4.16235160288e-05, Final residual = 2.00587088957e-07, No Iterations 2
time step continuity errors : sum local = 3.36080052875e-06, global = 3.29142905088e-07, cumulative = -0.00211487204385
PIMPLE: iteration 2

Restraint horizontalSpring:  attachmentPt - anchor (-3.49996245451 -1.36844660914e-06 -0.00039202066298) spring length 3.49996247647 force (0.023996997967 9.3825607915e-09 2.68783427674e-06)
6-DoF rigid body motion
    Centre of rotation: (0.500037556738 0.499998626462 0.49929920256)
    Centre of mass: (0.500037556738 0.499998626462 0.49929920256)
    Orientation: (0.999999999595 -2.41274374391e-07 2.84480471063e-05 2.42024379655e-07 0.999999999652 -2.63640328907e-05 -2.84480407355e-05 2.63640397651e-05 0.999999999248)
    Linear velocity: (0.000883671810743 -1.1986568039e-05 -0.0237814423449)
    Angular velocity: (0.000358956008436 0.000391349831001 1.37161251414e-06)
Execution time for mesh.update() = 0.05 s
GAMGPCG:  Solving for pcorr, Initial residual = 1, Final residual = 6.38202558289e-06, No Iterations 5
time step continuity errors : sum local = 9.60135604482e-11, global = -2.70172140049e-11, cumulative = -0.00211487207087
smoothSolver:  Solving for alpha.water, Initial residual = 2.64998730662e-05, Final residual = 7.18898326649e-11, No Iterations 1
Phase-1 volume fraction = 0.500000000134  Min(alpha.water) = -1.6738563588e-41  Max(alpha.water) = 1.0000087899
Applying the previous iteration compression flux
MULES: Correcting alpha.water
MULES: Correcting alpha.water
MULES: Correcting alpha.water
Phase-1 volume fraction = 0.500000000134  Min(alpha.water) = -1.6738563588e-41  Max(alpha.water) = 1.00000878626
GAMG:  Solving for p_rgh, Initial residual = 0.000107640654253, Final residual = 5.24269448332e-07, No Iterations 2
time step continuity errors : sum local = 8.78312143581e-06, global = -1.65224669497e-06, cumulative = -0.00211652431756
PIMPLE: iteration 3

Restraint horizontalSpring:  attachmentPt - anchor (-3.49996244326 -1.37353843954e-06 -0.00070079744049) spring length 3.49996251342 force (0.0239970005928 9.41747326785e-09 4.8049191577e-06)
6-DoF rigid body motion
    Centre of rotation: (0.500037549985 0.499998617242 0.499432253576)
    Centre of mass: (0.500037549985 0.499998617242 0.499432253576)
    Orientation: (0.99999999958 -2.40191479885e-07 2.89917251798e-05 2.40942463858e-07 0.999999999664 -2.59033895939e-05 -2.89917189483e-05 2.59033965684e-05 0.999999999244)
    Linear velocity: (0.000882608305429 -1.34386945632e-05 -0.00282590726558)
    Angular velocity: (0.000286404684347 0.000476979132503 1.20328535475e-06)
Execution time for mesh.update() = 0.05 s
GAMGPCG:  Solving for pcorr, Initial residual = 1, Final residual = 4.89153581043e-06, No Iterations 5
time step continuity errors : sum local = 6.71497012271e-11, global = 1.83825852314e-11, cumulative = -0.00211652429918
smoothSolver:  Solving for alpha.water, Initial residual = 1.16785156756e-05, Final residual = 2.98724222567e-11, No Iterations 1
Phase-1 volume fraction = 0.500000000233  Min(alpha.water) = -1.67385523595e-41  Max(alpha.water) = 1.00000879001
Applying the previous iteration compression flux
MULES: Correcting alpha.water
MULES: Correcting alpha.water
MULES: Correcting alpha.water
Phase-1 volume fraction = 0.500000000233  Min(alpha.water) = -1.67385523595e-41  Max(alpha.water) = 1.00000879001
GAMGPCG:  Solving for p_rgh, Initial residual = 7.46236043882e-05, Final residual = 4.61747864543e-09, No Iterations 3
time step continuity errors : sum local = 7.73946792779e-08, global = -1.30399226938e-08, cumulative = -0.0021165373391
smoothSolver:  Solving for epsilon, Initial residual = 0.0117605296081, Final residual = 5.90309969167e-07, No Iterations 3
smoothSolver:  Solving for k, Initial residual = 0.140939171546, Final residual = 4.15413833052e-07, No Iterations 4
ExecutionTime = 5.8 s  ClockTime = 7 s

Courant Number mean: 0.000409997591736 max: 0.0168578761399
Interface Courant Number mean: 2.75970621677e-05 max: 0.00748058847487
deltaT = 0.0126984126984
Time = 0.1

PIMPLE: iteration 1

Restraint horizontalSpring:  attachmentPt - anchor (-3.49996245001 -1.38275829048e-06 -0.000567746424114) spring length 3.49996249606 force (0.0239969993694 9.48068737837e-09 3.8926733575e-06)
6-DoF rigid body motion
    Centre of rotation: (0.500049544164 0.499998447776 0.499222897637)
    Centre of mass: (0.500049544164 0.499998447776 0.499222897637)
    Orientation: (0.999999999283 -2.46748599102e-07 3.78802940307e-05 2.47956579272e-07 0.999999999492 -3.18894070911e-05 -3.78802861428e-05 3.18894164609e-05 0.999999998774)
    Linear velocity: (0.00100647490048 -1.32522167639e-05 -0.0301476531151)
    Angular velocity: (0.000656393103662 0.000922970435216 -1.30395043899e-07)
Execution time for mesh.update() = 0.06 s
GAMGPCG:  Solving for pcorr, Initial residual = 1, Final residual = 7.85656307088e-07, No Iterations 6
time step continuity errors : sum local = 6.13281765546e-12, global = 4.3048790197e-13, cumulative = -0.00211653733867
smoothSolver:  Solving for alpha.water, Initial residual = 1.79756626781e-05, Final residual = 7.54917645929e-11, No Iterations 1
Phase-1 volume fraction = 0.500000000158  Min(alpha.water) = -1.67351560673e-41  Max(alpha.water) = 1.00000878128
Applying the previous iteration compression flux
MULES: Correcting alpha.water
MULES: Correcting alpha.water
MULES: Correcting alpha.water
Phase-1 volume fraction = 0.500000000158  Min(alpha.water) = -1.67351560673e-41  Max(alpha.water) = 1.00000766563
GAMG:  Solving for p_rgh, Initial residual = 0.000144987100529, Final residual = 7.19813328188e-07, No Iterations 2
time step continuity errors : sum local = 1.20699037229e-05, global = -2.13300499167e-06, cumulative = -0.00211867034366
PIMPLE: iteration 2

Restraint horizontalSpring:  attachmentPt - anchor (-3.49995045584 -1.55222439413e-06 -0.000777102363039) spring length 3.49995054211 force (0.0239960427771 1.06422200632e-08 5.3278987177e-06)
6-DoF rigid body motion
    Centre of rotation: (0.500049486645 0.49999844855 0.499529268419)
    Centre of mass: (0.500049486645 0.49999844855 0.499529268419)
    Orientation: (0.999999999333 -2.48815613064e-07 3.65173570069e-05 2.49867244272e-07 0.999999999585 -2.87981176848e-05 -3.65173498263e-05 2.87981267901e-05 0.999999998919)
    Linear velocity: (0.000997415596947 -1.31301898868e-05 0.0181057450453)
    Angular velocity: (0.000169515034206 0.000708307843062 1.88208773927e-07)
Execution time for mesh.update() = 0.04 s
GAMGPCG:  Solving for pcorr, Initial residual = 1, Final residual = 4.95103362338e-06, No Iterations 5
time step continuity errors : sum local = 1.16691146223e-10, global = 3.52340066091e-11, cumulative = -0.00211867030843
smoothSolver:  Solving for alpha.water, Initial residual = 2.65891843475e-05, Final residual = 6.6617286897e-11, No Iterations 1
Phase-1 volume fraction = 0.500000000294  Min(alpha.water) = -1.6735298146e-41  Max(alpha.water) = 1.00000878138
Applying the previous iteration compression flux
MULES: Correcting alpha.water
MULES: Correcting alpha.water
MULES: Correcting alpha.water
Phase-1 volume fraction = 0.500000000294  Min(alpha.water) = -1.6735298146e-41  Max(alpha.water) = 1.00000768682
GAMG:  Solving for p_rgh, Initial residual = 0.000129539724982, Final residual = 5.81008278259e-07, No Iterations 2
time step continuity errors : sum local = 9.75198484675e-06, global = 7.30091892017e-07, cumulative = -0.00211794021654
PIMPLE: iteration 3

Restraint horizontalSpring:  attachmentPt - anchor (-3.49995051336 -1.55144962033e-06 -0.000470731581068) spring length 3.49995054501 force (0.0239960433839 1.06369082235e-08 3.22738718687e-06)
6-DoF rigid body motion
    Centre of rotation: (0.500049497165 0.499998459737 0.499400952198)
    Centre of mass: (0.500049497165 0.499998459737 0.499400952198)
    Orientation: (0.999999999348 -2.50371227169e-07 3.61151568361e-05 2.51425710911e-07 0.999999999574 -2.91978154721e-05 -3.61151495104e-05 2.91978245333e-05 0.999999998922)
    Linear velocity: (0.000999072490069 -1.13682356245e-05 -0.00210405976733)
    Angular velocity: (0.000232467444982 0.000644961308752 4.31403798545e-07)
Execution time for mesh.update() = 0.05 s
GAMGPCG:  Solving for pcorr, Initial residual = 1, Final residual = 4.55318430918e-06, No Iterations 5
time step continuity errors : sum local = 6.59777759573e-11, global = -1.45195936916e-11, cumulative = -0.00211794023106
smoothSolver:  Solving for alpha.water, Initial residual = 1.10781120099e-05, Final residual = 1.72329635018e-11, No Iterations 1
Phase-1 volume fraction = 0.500000000216  Min(alpha.water) = -1.67353133733e-41  Max(alpha.water) = 1.00000878149
Applying the previous iteration compression flux
MULES: Correcting alpha.water
MULES: Correcting alpha.water
MULES: Correcting alpha.water
Phase-1 volume fraction = 0.500000000216  Min(alpha.water) = -1.67353133733e-41  Max(alpha.water) = 1.00000768932
GAMGPCG:  Solving for p_rgh, Initial residual = 3.08675237382e-05, Final residual = 7.14006905244e-09, No Iterations 2
time step continuity errors : sum local = 1.19835863284e-07, global = -9.30003771827e-10, cumulative = -0.00211794116106
smoothSolver:  Solving for epsilon, Initial residual = 0.0130457732177, Final residual = 6.29231688737e-07, No Iterations 3
smoothSolver:  Solving for k, Initial residual = 0.12172871393, Final residual = 3.60330151259e-07, No Iterations 4
ExecutionTime = 7.41 s  ClockTime = 9 s

Courant Number mean: 0.000436271141908 max: 0.0167257283479
Interface Courant Number mean: 2.69515501227e-05 max: 0.0072998988068
deltaT = 0.0142857142857
Time = 0.114286

PIMPLE: iteration 1

Restraint horizontalSpring:  attachmentPt - anchor (-3.49995050284 -1.54026260912e-06 -0.0005990478021) spring length 3.4999505541 force (0.0239960439767 1.05602091441e-08 4.10713734142e-06)
6-DoF rigid body motion
    Centre of rotation: (0.50006465741 0.499998328963 0.499598984914)
    Centre of mass: (0.50006465741 0.499998328963 0.499598984914)
    Orientation: (0.999999999007 -2.53720165263e-07 4.45691948719e-05 2.54996808064e-07 0.99999999959 -2.86440590977e-05 -4.45691875861e-05 2.86440704343e-05 0.999999998597)
    Linear velocity: (0.00112336182528 -6.94022105959e-06 0.0298286400125)
    Angular velocity: (-0.000309993317334 0.00053860400218 7.39998050088e-08)
Execution time for mesh.update() = 0.05 s
GAMGPCG:  Solving for pcorr, Initial residual = 1, Final residual = 7.93028055035e-07, No Iterations 6
time step continuity errors : sum local = 7.84660135237e-12, global = -5.595582693e-13, cumulative = -0.00211794116162
smoothSolver:  Solving for alpha.water, Initial residual = 2.19779302808e-05, Final residual = 4.5945719037e-11, No Iterations 1
Phase-1 volume fraction = 0.500000000256  Min(alpha.water) = -1.67319419785e-41  Max(alpha.water) = 1.00000771427
Applying the previous iteration compression flux
MULES: Correcting alpha.water
MULES: Correcting alpha.water
MULES: Correcting alpha.water
Phase-1 volume fraction = 0.500000000256  Min(alpha.water) = -1.67319419785e-41  Max(alpha.water) = 1.00000659415
GAMG:  Solving for p_rgh, Initial residual = 6.14317464639e-05, Final residual = 2.40927409218e-07, No Iterations 2
time step continuity errors : sum local = 5.02280333122e-06, global = 5.83849770749e-07, cumulative = -0.00211735731185
PIMPLE: iteration 2

Restraint horizontalSpring:  attachmentPt - anchor (-3.49993534259 -1.6710372997e-06 -0.000401015086064) spring length 3.49993536556 force (0.0239948290876 1.14562843254e-08 2.74927606078e-06)
6-DoF rigid body motion
    Centre of rotation: (0.500064673104 0.499998326514 0.499228702778)
    Centre of mass: (0.500064673104 0.499998326514 0.499228702778)
    Orientation: (0.999999998827 -2.55825026863e-07 4.84419765034e-05 2.57397119162e-07 0.999999999473 -3.24530963661e-05 -4.84419681755e-05 3.24531087968e-05 0.9999999983)
    Linear velocity: (0.00112555893206 -7.2829801498e-06 -0.0220108589614)
    Angular velocity: (0.000223271916685 0.00108079342114 3.86091407679e-07)
Execution time for mesh.update() = 0.05 s
GAMGPCG:  Solving for pcorr, Initial residual = 1, Final residual = 5.94318583378e-06, No Iterations 5
time step continuity errors : sum local = 1.13133207985e-10, global = -3.14547174126e-11, cumulative = -0.0021173573433
smoothSolver:  Solving for alpha.water, Initial residual = 3.18060117286e-05, Final residual = 1.00773551433e-10, No Iterations 1
Phase-1 volume fraction = 0.500000000115  Min(alpha.water) = -1.67322831452e-41  Max(alpha.water) = 1.00000771437
Applying the previous iteration compression flux
MULES: Correcting alpha.water
MULES: Correcting alpha.water
MULES: Correcting alpha.water
Phase-1 volume fraction = 0.500000000115  Min(alpha.water) = -1.67322831452e-41  Max(alpha.water) = 1.00000729588
GAMG:  Solving for p_rgh, Initial residual = 0.000113261363351, Final residual = 5.32007125937e-07, No Iterations 2
time step continuity errors : sum local = 1.10863157027e-05, global = -2.04119208247e-06, cumulative = -0.00211939853539
PIMPLE: iteration 3

Restraint horizontalSpring:  attachmentPt - anchor (-3.4999353269 -1.67348557895e-06 -0.000771297221592) spring length 3.49993541188 force (0.0239948323681 1.14730708389e-08 5.28785414857e-06)
6-DoF rigid body motion
    Centre of rotation: (0.500064667152 0.499998314817 0.49938987714)
    Centre of mass: (0.500064667152 0.499998314817 0.49938987714)
    Orientation: (0.999999998795 -2.55473723927e-07 4.90995800708e-05 2.57042108056e-07 0.99999999949 -3.19429198127e-05 -4.90995718852e-05 3.19429323949e-05 0.999999998284)
    Linear velocity: (0.00112472573562 -8.92056772418e-06 0.000553551723448)
    Angular velocity: (0.000151847196846 0.00117285792239 3.39765139151e-07)
Execution time for mesh.update() = 0.05 s
GAMGPCG:  Solving for pcorr, Initial residual = 1, Final residual = 5.08763041025e-06, No Iterations 5
time step continuity errors : sum local = 8.68729239039e-11, global = 2.13205143837e-11, cumulative = -0.00211939851407
smoothSolver:  Solving for alpha.water, Initial residual = 1.41246804951e-05, Final residual = 4.26749885947e-11, No Iterations 1
Phase-1 volume fraction = 0.500000000254  Min(alpha.water) = -1.67322815017e-41  Max(alpha.water) = 1.0000077143
Applying the previous iteration compression flux
MULES: Correcting alpha.water
MULES: Correcting alpha.water
MULES: Correcting alpha.water
Phase-1 volume fraction = 0.500000000254  Min(alpha.water) = -1.67322815017e-41  Max(alpha.water) = 1.00000741913
GAMGPCG:  Solving for p_rgh, Initial residual = 7.51344737593e-05, Final residual = 2.43624021949e-09, No Iterations 3
time step continuity errors : sum local = 5.08045925337e-08, global = 1.53957221806e-08, cumulative = -0.00211938311834
smoothSolver:  Solving for epsilon, Initial residual = 0.0160133803182, Final residual = 4.33812630261e-08, No Iterations 4
smoothSolver:  Solving for k, Initial residual = 0.120298854892, Final residual = 5.58616962925e-07, No Iterations 4
ExecutionTime = 8.2 s  ClockTime = 9 s

Courant Number mean: 0.000523256935276 max: 0.0210364008663
Interface Courant Number mean: 3.61459361539e-05 max: 0.00944610142784
deltaT = 0.0171428571429
Time = 0.131429

PIMPLE: iteration 1

Restraint horizontalSpring:  attachmentPt - anchor (-3.49993533285 -1.68518263305e-06 -0.000610122859557) spring length 3.49993538603 force (0.0239948305176 1.15532625108e-08 4.18287574419e-06)
6-DoF rigid body motion
    Centre of rotation: (0.500085267844 0.499998166074 0.499122772251)
    Centre of mass: (0.500085267844 0.499998166074 0.499122772251)
    Orientation: (0.999999996699 -2.62847646577e-07 8.12559265624e-05 2.65968072811e-07 0.999999999263 -3.84024363809e-05 -8.12559164085e-05 3.84024578657e-05 0.999999995961)
    Linear velocity: (0.00127868826483 -8.43280491864e-06 -0.0317157887687)
    Angular velocity: (0.000601763144067 0.00257871580968 6.49785550712e-07)
Execution time for mesh.update() = 0.06 s
GAMGPCG:  Solving for pcorr, Initial residual = 1, Final residual = 8.0102827371e-07, No Iterations 6
time step continuity errors : sum local = 9.44983130328e-12, global = 6.92853082783e-13, cumulative = -0.00211938311765
smoothSolver:  Solving for alpha.water, Initial residual = 2.28868929382e-05, Final residual = 1.65765118139e-10, No Iterations 1
Phase-1 volume fraction = 0.50000000009  Min(alpha.water) = -1.67289197185e-41  Max(alpha.water) = 1.00000742365
Applying the previous iteration compression flux
MULES: Correcting alpha.water
MULES: Correcting alpha.water
MULES: Correcting alpha.water
Phase-1 volume fraction = 0.50000000009  Min(alpha.water) = -1.67289197185e-41  Max(alpha.water) = 1.0000055456
GAMG:  Solving for p_rgh, Initial residual = 0.000183465412396, Final residual = 8.51753681842e-07, No Iterations 2
time step continuity errors : sum local = 2.48479926356e-05, global = -4.36599664674e-06, cumulative = -0.0021237491143
PIMPLE: iteration 2

Restraint horizontalSpring:  attachmentPt - anchor (-3.49991473216 -1.83392582714e-06 -0.000877227748516) spring length 3.49991484209 force (0.0239931866137 1.25722276038e-08 6.01371481411e-06)
6-DoF rigid body motion
    Centre of rotation: (0.500085191171 0.499998165507 0.499608554691)
    Centre of mass: (0.500085191171 0.499998165507 0.499608554691)
    Orientation: (0.999999997679 -2.58113708975e-07 6.81249735901e-05 2.60434324758e-07 0.99999999942 -3.40640914218e-05 -6.81249647582e-05 3.40641090849e-05 0.999999997099)
    Linear velocity: (0.00126974315806 -8.49893676181e-06 0.0249588292191)
    Angular velocity: (9.56228463491e-05 0.00104677131402 4.18898155629e-08)
Execution time for mesh.update() = 0.05 s
GAMGPCG:  Solving for pcorr, Initial residual = 1, Final residual = 4.34836176734e-06, No Iterations 5
time step continuity errors : sum local = 1.87024251133e-10, global = 6.33863439787e-11, cumulative = -0.00212374905091
smoothSolver:  Solving for alpha.water, Initial residual = 4.21090297563e-05, Final residual = 2.2106855166e-10, No Iterations 1
Phase-1 volume fraction = 0.50000000046  Min(alpha.water) = -1.67290720297e-41  Max(alpha.water) = 1.00000742345
Applying the previous iteration compression flux
MULES: Correcting alpha.water
MULES: Correcting alpha.water
MULES: Correcting alpha.water
Phase-1 volume fraction = 0.50000000046  Min(alpha.water) = -1.67290720297e-41  Max(alpha.water) = 1.00000557597
GAMG:  Solving for p_rgh, Initial residual = 0.000176556544415, Final residual = 7.55938983968e-07, No Iterations 2
time step continuity errors : sum local = 2.20673454016e-05, global = 1.98888286436e-06, cumulative = -0.00212176016805
PIMPLE: iteration 3

Restraint horizontalSpring:  attachmentPt - anchor (-3.49991480883 -1.83449267149e-06 -0.00039144530862) spring length 3.49991483072 force (0.0239931863075 1.25761130916e-08 2.68349966555e-06)
6-DoF rigid body motion
    Centre of rotation: (0.500085196794 0.499998186744 0.499397008188)
    Centre of mass: (0.500085196794 0.499998186744 0.499397008188)
    Orientation: (0.999999997743 -2.57496707954e-07 6.71930484596e-05 2.59829561478e-07 0.999999999397 -3.47186672755e-05 -6.71930394791e-05 3.47186846559e-05 0.99999999714)
    Linear velocity: (0.00127039919338 -6.02134867807e-06 0.000278403873994)
    Angular velocity: (0.000171990024017 0.000938046717855 -3.39002926952e-08)
Execution time for mesh.update() = 0.06 s
GAMGPCG:  Solving for pcorr, Initial residual = 1, Final residual = 4.53608913654e-06, No Iterations 5
time step continuity errors : sum local = 1.35166218104e-10, global = -2.72824640159e-11, cumulative = -0.00212176019533
smoothSolver:  Solving for alpha.water, Initial residual = 1.83094146292e-05, Final residual = 5.69285634018e-11, No Iterations 1
Phase-1 volume fraction = 0.500000000198  Min(alpha.water) = -1.67290373084e-41  Max(alpha.water) = 1.00000742362
Applying the previous iteration compression flux
MULES: Correcting alpha.water
MULES: Correcting alpha.water
MULES: Correcting alpha.water
Phase-1 volume fraction = 0.500000000198  Min(alpha.water) = -1.67290373084e-41  Max(alpha.water) = 1.00000557856
GAMGPCG:  Solving for p_rgh, Initial residual = 4.40250458359e-05, Final residual = 8.67362977865e-09, No Iterations 2
time step continuity errors : sum local = 2.53151386339e-07, global = 8.91654177593e-08, cumulative = -0.00212167102991
smoothSolver:  Solving for epsilon, Initial residual = 0.0208750985004, Final residual = 1.08416229385e-07, No Iterations 4
smoothSolver:  Solving for k, Initial residual = 0.126887720436, Final residual = 7.32639911421e-08, No Iterations 5
ExecutionTime = 8.99 s  ClockTime = 10 s

Courant Number mean: 0.000631418382156 max: 0.0240353624551
Interface Courant Number mean: 3.9713454673e-05 max: 0.0104908146753
deltaT = 0.0171428571429
Time = 0.148571

PIMPLE: iteration 1

Restraint horizontalSpring:  attachmentPt - anchor (-3.49991480321 -1.81325620219e-06 -0.000602991811579) spring length 3.49991485515 force (0.0239931880559 1.24305303126e-08 4.13372803193e-06)
6-DoF rigid body motion
    Centre of rotation: (0.50010816522 0.499998128758 0.499667718452)
    Centre of mass: (0.50010816522 0.499998128758 0.499667718452)
    Orientation: (0.999999997737 -2.48894840061e-07 6.72807037857e-05 2.51191581348e-07 0.999999999417 -3.41366949747e-05 -6.728069525e-05 3.41367117978e-05 0.999999997154)
    Linear velocity: (0.00140925040848 -7.43667232408e-07 0.0313044601935)
    Angular velocity: (-0.000239886868182 -0.000927820227252 -9.68737893926e-07)
Execution time for mesh.update() = 0.05 s
GAMGPCG:  Solving for pcorr, Initial residual = 1, Final residual = 9.96189797183e-06, No Iterations 5
time step continuity errors : sum local = 1.1331454392e-10, global = 2.55597244083e-11, cumulative = -0.00212167100435
smoothSolver:  Solving for alpha.water, Initial residual = 2.99637848901e-05, Final residual = 1.13309819466e-10, No Iterations 1
Phase-1 volume fraction = 0.5000000003  Min(alpha.water) = -1.67262450288e-41  Max(alpha.water) = 1.00000565927
Applying the previous iteration compression flux
MULES: Correcting alpha.water
MULES: Correcting alpha.water
MULES: Correcting alpha.water
Phase-1 volume fraction = 0.5000000003  Min(alpha.water) = -1.67262450288e-41  Max(alpha.water) = 1.00000413506
GAMG:  Solving for p_rgh, Initial residual = 8.79294711681e-05, Final residual = 2.91954973216e-07, No Iterations 2
time step continuity errors : sum local = 8.52729733703e-06, global = 1.05666604338e-06, cumulative = -0.00212061433831
PIMPLE: iteration 2

Restraint horizontalSpring:  attachmentPt - anchor (-3.49989183478 -1.87124205286e-06 -0.000332281548143) spring length 3.49989185055 force (0.0239913479362 1.28271447469e-08 2.27775103078e-06)
6-DoF rigid body motion
    Centre of rotation: (0.500108166794 0.499998134214 0.499216295707)
    Centre of mass: (0.500108166794 0.499998134214 0.499216295707)
    Orientation: (0.999999997515 -2.51105268512e-07 7.04909570258e-05 2.53348062306e-07 0.999999999494 -3.18167519203e-05 -7.04909490008e-05 3.18167697e-05 0.999999997009)
    Linear velocity: (0.00140943406825 -1.07131370107e-07 -0.0213615266632)
    Angular velocity: (-0.000510546873436 -0.000553290692438 -6.9567834413e-07)
Execution time for mesh.update() = 0.04 s
GAMGPCG:  Solving for pcorr, Initial residual = 1, Final residual = 5.4690151891e-06, No Iterations 5
time step continuity errors : sum local = 1.39994789721e-10, global = -3.8310663957e-11, cumulative = -0.00212061437662
smoothSolver:  Solving for alpha.water, Initial residual = 3.88461462529e-05, Final residual = 1.59682531448e-10, No Iterations 1
Phase-1 volume fraction = 0.500000000039  Min(alpha.water) = -1.67266071236e-41  Max(alpha.water) = 1.00000565954
Applying the previous iteration compression flux
MULES: Correcting alpha.water
MULES: Correcting alpha.water
MULES: Correcting alpha.water
Phase-1 volume fraction = 0.500000000039  Min(alpha.water) = -1.67266071236e-41  Max(alpha.water) = 1.00000564294
GAMG:  Solving for p_rgh, Initial residual = 0.00013076413356, Final residual = 5.83830466288e-07, No Iterations 2
time step continuity errors : sum local = 1.70532679349e-05, global = -3.19645027518e-06, cumulative = -0.00212381082689
PIMPLE: iteration 3

Restraint horizontalSpring:  attachmentPt - anchor (-3.49989183321 -1.86578603117e-06 -0.000783704292629) spring length 3.49989192095 force (0.0239913530746 1.27897471033e-08 5.37220213841e-06)
6-DoF rigid body motion
    Centre of rotation: (0.500108159468 0.499998121305 0.499417985725)
    Centre of mass: (0.500108159468 0.499998121305 0.499417985725)
    Orientation: (0.999999997471 -2.50851363315e-07 7.11257781883e-05 2.530462964e-07 0.999999999524 -3.08598741638e-05 -7.11257704132e-05 3.08598920839e-05 0.999999996994)
    Linear velocity: (0.00140857940494 -1.61318242818e-06 0.00216897543376)
    Angular velocity: (-0.000622182614536 -0.000479228222906 -7.22049464646e-07)
Execution time for mesh.update() = 0.06 s
GAMGPCG:  Solving for pcorr, Initial residual = 1, Final residual = 5.04237276894e-06, No Iterations 5
time step continuity errors : sum local = 1.23575913352e-10, global = 2.9228613711e-11, cumulative = -0.00212381079767
smoothSolver:  Solving for alpha.water, Initial residual = 1.77042888216e-05, Final residual = 6.89215382842e-11, No Iterations 1
Phase-1 volume fraction = 0.500000000258  Min(alpha.water) = -1.67266180483e-41  Max(alpha.water) = 1.00000565935
Applying the previous iteration compression flux
MULES: Correcting alpha.water
MULES: Correcting alpha.water
MULES: Correcting alpha.water
Phase-1 volume fraction = 0.500000000258  Min(alpha.water) = -1.67266180483e-41  Max(alpha.water) = 1.00000565935
GAMGPCG:  Solving for p_rgh, Initial residual = 8.60309968101e-05, Final residual = 1.55535897635e-09, No Iterations 3
time step continuity errors : sum local = 4.54338733894e-08, global = -1.22330466525e-08, cumulative = -0.00212382303071
smoothSolver:  Solving for epsilon, Initial residual = 0.0230871296662, Final residual = 1.16192421734e-07, No Iterations 4
smoothSolver:  Solving for k, Initial residual = 0.111683750877, Final residual = 6.47769583829e-08, No Iterations 5
ExecutionTime = 9.77 s  ClockTime = 11 s

Courant Number mean: 0.000668283332425 max: 0.0246854881752
Interface Courant Number mean: 4.43796697364e-05 max: 0.0116851306351
deltaT = 0.0171428571429
Time = 0.165714

PIMPLE: iteration 1

Restraint horizontalSpring:  attachmentPt - anchor (-3.49989184053 -1.87869504026e-06 -0.000582014274655) spring length 3.49989188893 force (0.0239913507823 1.28782356077e-08 3.98964004026e-06)
6-DoF rigid body motion
    Centre of rotation: (0.500133494875 0.49999812437 0.499226337789)
    Centre of mass: (0.500133494875 0.49999812437 0.499226337789)
    Orientation: (0.999999998504 -2.34509665124e-07 5.47073964522e-05 2.35058730444e-07 0.99999999995 -1.00363939019e-05 -5.47073940958e-05 1.00364067464e-05 0.999999998453)
    Linear velocity: (0.00154721809762 1.97079347678e-06 -0.0245279013509)
    Angular velocity: (-0.0018072235376 -0.00143624961904 -1.2234139374e-06)
Execution time for mesh.update() = 0.04 s
GAMGPCG:  Solving for pcorr, Initial residual = 1, Final residual = 7.93456182315e-07, No Iterations 6
time step continuity errors : sum local = 7.68559902626e-12, global = 5.78260502624e-13, cumulative = -0.00212382303013
smoothSolver:  Solving for alpha.water, Initial residual = 1.64732166176e-05, Final residual = 8.73852224735e-11, No Iterations 1
Phase-1 volume fraction = 0.500000000172  Min(alpha.water) = -1.67243203732e-41  Max(alpha.water) = 1.00000565414
Applying the previous iteration compression flux
MULES: Correcting alpha.water
MULES: Correcting alpha.water
MULES: Correcting alpha.water
Phase-1 volume fraction = 0.500000000172  Min(alpha.water) = -1.67243203732e-41  Max(alpha.water) = 1.00000429575
GAMG:  Solving for p_rgh, Initial residual = 0.000147691953855, Final residual = 6.92237787903e-07, No Iterations 2
time step continuity errors : sum local = 2.02266576803e-05, global = -3.56048163651e-06, cumulative = -0.00212738351177
PIMPLE: iteration 2

Restraint horizontalSpring:  attachmentPt - anchor (-3.49986650512 -1.87562980269e-06 -0.000773662211088) spring length 3.49986659064 force (0.0239893266648 1.285623208e-08 5.30295526495e-06)
6-DoF rigid body motion
    Centre of rotation: (0.5001334333 0.499998108496 0.499652976903)
    Centre of mass: (0.5001334333 0.499998108496 0.499652976903)
    Orientation: (0.999999998078 -1.83198192577e-07 6.20033363186e-05 1.84018534562e-07 0.999999999912 -1.32306049442e-05 -6.20033338894e-05 1.32306163285e-05 0.99999999799)
    Linear velocity: (0.00154003435904 1.18801451478e-07 0.0252466619675)
    Angular velocity: (-0.00143456594522 -0.00058505656201 -7.19705550666e-06)
Execution time for mesh.update() = 0.05 s
GAMGPCG:  Solving for pcorr, Initial residual = 1, Final residual = 4.15234268523e-06, No Iterations 5
time step continuity errors : sum local = 1.50316308451e-10, global = 5.6464710566e-11, cumulative = -0.00212738345531
smoothSolver:  Solving for alpha.water, Initial residual = 3.69748384038e-05, Final residual = 1.70794459238e-10, No Iterations 1
Phase-1 volume fraction = 0.500000000418  Min(alpha.water) = -1.67243533996e-41  Max(alpha.water) = 1.00000565381
Applying the previous iteration compression flux
MULES: Correcting alpha.water
MULES: Correcting alpha.water
MULES: Correcting alpha.water
Phase-1 volume fraction = 0.500000000418  Min(alpha.water) = -1.67243533996e-41  Max(alpha.water) = 1.00000430563
GAMG:  Solving for p_rgh, Initial residual = 0.000144173978054, Final residual = 6.11693656689e-07, No Iterations 2
time step continuity errors : sum local = 1.78884773982e-05, global = 1.71598298163e-06, cumulative = -0.00212566747232
PIMPLE: iteration 3

Restraint horizontalSpring:  attachmentPt - anchor (-3.4998665667 -1.89150402008e-06 -0.00034702309693) spring length 3.4998665839 force (0.0239893265944 1.29650393315e-08 2.37861937003e-06)
6-DoF rigid body motion
    Centre of rotation: (0.500133449656 0.499998114152 0.499468055042)
    Centre of mass: (0.500133449656 0.499998114152 0.499468055042)
    Orientation: (0.999999998069 -1.67032547395e-07 6.21452516617e-05 1.67900158207e-07 0.999999999903 -1.39610103883e-05 -6.21452493237e-05 1.39610207955e-05 0.999999997972)
    Linear velocity: (0.00154194257116 7.78629893517e-07 0.00367244481467)
    Angular velocity: (-0.00134935209022 -0.000568499745158 -9.08280334536e-06)
Execution time for mesh.update() = 0.05 s
GAMGPCG:  Solving for pcorr, Initial residual = 1, Final residual = 4.8820358547e-06, No Iterations 5
time step continuity errors : sum local = 1.20487444587e-10, global = -2.18196344952e-11, cumulative = -0.00212566749414
smoothSolver:  Solving for alpha.water, Initial residual = 1.61593673341e-05, Final residual = 5.79108596176e-11, No Iterations 1
Phase-1 volume fraction = 0.500000000201  Min(alpha.water) = -1.67243247969e-41  Max(alpha.water) = 1.00000565399
Applying the previous iteration compression flux
MULES: Correcting alpha.water
MULES: Correcting alpha.water
MULES: Correcting alpha.water
Phase-1 volume fraction = 0.500000000201  Min(alpha.water) = -1.67243247969e-41  Max(alpha.water) = 1.00000431056
GAMGPCG:  Solving for p_rgh, Initial residual = 3.79328076121e-05, Final residual = 8.55854461179e-09, No Iterations 2
time step continuity errors : sum local = 2.50260789291e-07, global = 1.38223487543e-07, cumulative = -0.00212552927066
smoothSolver:  Solving for epsilon, Initial residual = 0.0252571415871, Final residual = 1.23190119185e-07, No Iterations 4
smoothSolver:  Solving for k, Initial residual = 0.0998769452987, Final residual = 9.28141355318e-07, No Iterations 4
ExecutionTime = 10.56 s  ClockTime = 12 s

Courant Number mean: 0.000665306376702 max: 0.0233864789206
Interface Courant Number mean: 4.25156569656e-05 max: 0.0112439819027
deltaT = 0.0171428571429
Time = 0.182857

PIMPLE: iteration 1

Restraint horizontalSpring:  attachmentPt - anchor (-3.49986655034 -1.8858483477e-06 -0.00053194495824) spring length 3.49986659077 force (0.0239893269844 1.2926273618e-08 3.646139462e-06)
6-DoF rigid body motion
    Centre of rotation: (0.500160990414 0.499998138611 0.499777055814)
    Centre of mass: (0.500160990414 0.499998138611 0.499777055814)
    Orientation: (0.999999998254 1.32321085412e-07 5.90987516136e-05 -1.33004241075e-07 0.999999999933 1.1559557869e-05 -5.90987500801e-05 -1.15595657092e-05 0.999999998187)
    Linear velocity: (0.00167114583554 2.07492718832e-06 0.0323776452451)
    Angular velocity: (-0.00162804948797 0.000213074339762 -2.5852611557e-05)
Execution time for mesh.update() = 0.05 s
GAMGPCG:  Solving for pcorr, Initial residual = 1, Final residual = 9.82462186357e-06, No Iterations 5
time step continuity errors : sum local = 1.02852003992e-10, global = 2.34173062117e-11, cumulative = -0.00212552924724
smoothSolver:  Solving for alpha.water, Initial residual = 3.3417500915e-05, Final residual = 1.31359427482e-10, No Iterations 1
Phase-1 volume fraction = 0.500000000322  Min(alpha.water) = -1.67223318691e-41  Max(alpha.water) = 1.00000442356
Applying the previous iteration compression flux
MULES: Correcting alpha.water
MULES: Correcting alpha.water
MULES: Correcting alpha.water
Phase-1 volume fraction = 0.500000000322  Min(alpha.water) = -1.67223318691e-41  Max(alpha.water) = 1.00000482437
GAMG:  Solving for p_rgh, Initial residual = 0.000101197681744, Final residual = 3.17632615927e-07, No Iterations 2
time step continuity errors : sum local = 9.29367626409e-06, global = 1.36155421101e-06, cumulative = -0.00212416769303
PIMPLE: iteration 2

Restraint horizontalSpring:  attachmentPt - anchor (-3.49983900959 -1.86138928698e-06 -0.000222944186299) spring length 3.49983901669 force (0.0239871212863 1.27575498375e-08 1.52801006623e-06)
6-DoF rigid body motion
    Centre of rotation: (0.500161000168 0.49999815186 0.499348813456)
    Centre of mass: (0.500161000168 0.49999815186 0.499348813456)
    Orientation: (0.999999997064 -4.99014560856e-08 7.66226766168e-05 4.96004150285e-08 0.999999999992 3.92887870261e-06 -7.66226768122e-05 -3.92887489056e-06 0.999999997057)
    Linear velocity: (0.00167228379347 3.62071413546e-06 -0.017583963157)
    Angular velocity: (-0.000737802451901 0.00225753265941 -4.60372387034e-06)
Execution time for mesh.update() = 0.05 s
GAMGPCG:  Solving for pcorr, Initial residual = 1, Final residual = 5.73297040791e-06, No Iterations 5
time step continuity errors : sum local = 1.46113776978e-10, global = -3.84389310535e-11, cumulative = -0.00212416773147
smoothSolver:  Solving for alpha.water, Initial residual = 3.69343314237e-05, Final residual = 1.10015473815e-10, No Iterations 1
Phase-1 volume fraction = 0.500000000091  Min(alpha.water) = -1.67226582432e-41  Max(alpha.water) = 1.0000044238
Applying the previous iteration compression flux
MULES: Correcting alpha.water
MULES: Correcting alpha.water
MULES: Correcting alpha.water
Phase-1 volume fraction = 0.500000000091  Min(alpha.water) = -1.67226582432e-41  Max(alpha.water) = 1.00000423813
GAMG:  Solving for p_rgh, Initial residual = 0.000119265988941, Final residual = 5.2231482861e-07, No Iterations 2
time step continuity errors : sum local = 1.52773202906e-05, global = -2.76868377498e-06, cumulative = -0.00212693641524
PIMPLE: iteration 3

Restraint horizontalSpring:  attachmentPt - anchor (-3.49983899983 -1.84813968462e-06 -0.000651186544032) spring length 3.49983906041 force (0.0239871244178 1.26667416869e-08 4.46308891685e-06)
6-DoF rigid body motion
    Centre of rotation: (0.500160995997 0.499998147603 0.499539976405)
    Centre of mass: (0.500160995997 0.499998147603 0.499539976405)
    Orientation: (0.999999996942 -1.31926767606e-07 7.82045706319e-05 1.31588989137e-07 0.999999999991 4.31917044924e-06 -7.8204571201e-05 -4.31916014518e-06 0.999999996933)
    Linear velocity: (0.00167179716175 3.12404409633e-06 0.00471838089901)
    Angular velocity: (-0.000783335821247 0.00244208707799 4.96409951432e-06)
Execution time for mesh.update() = 0.04 s
GAMGPCG:  Solving for pcorr, Initial residual = 1, Final residual = 5.09664655643e-06, No Iterations 5
time step continuity errors : sum local = 1.13966412385e-10, global = 2.72647363642e-11, cumulative = -0.00212693638798
smoothSolver:  Solving for alpha.water, Initial residual = 1.68128687257e-05, Final residual = 5.34190134044e-11, No Iterations 1
Phase-1 volume fraction = 0.500000000247  Min(alpha.water) = -1.67226683637e-41  Max(alpha.water) = 1.00000442363
Applying the previous iteration compression flux
MULES: Correcting alpha.water
MULES: Correcting alpha.water
MULES: Correcting alpha.water
Phase-1 volume fraction = 0.500000000247  Min(alpha.water) = -1.67226683637e-41  Max(alpha.water) = 1.0000042335
GAMGPCG:  Solving for p_rgh, Initial residual = 7.4526626098e-05, Final residual = 2.10242039488e-09, No Iterations 3
time step continuity errors : sum local = 6.14958600111e-08, global = 4.74778070227e-08, cumulative = -0.00212688891017
smoothSolver:  Solving for epsilon, Initial residual = 0.0274098572859, Final residual = 1.30417267905e-07, No Iterations 4
smoothSolver:  Solving for k, Initial residual = 0.0901335973084, Final residual = 8.42165855436e-07, No Iterations 4
ExecutionTime = 11.36 s  ClockTime = 13 s

Courant Number mean: 0.000692577887248 max: 0.0236491342152
Interface Courant Number mean: 4.71877677552e-05 max: 0.0117848041274
deltaT = 0.0171428571429
Time = 0.2

PIMPLE: iteration 1

Restraint horizontalSpring:  attachmentPt - anchor (-3.499839004 -1.85239685635e-06 -0.00046002359498) spring length 3.49983903424 force (0.0239871225317 1.26959183893e-08 3.15289998415e-06)
6-DoF rigid body motion
    Centre of rotation: (0.500190785253 0.499998230485 0.499389699387)
    Centre of mass: (0.500190785253 0.499998230485 0.499389699387)
    Orientation: (0.999999986367 -6.09975816237e-07 0.000165123357829 6.09040688614e-07 0.999999999984 5.66325642176e-06 -0.00016512336128 -5.66315577771e-06 0.999999986351)
    Linear velocity: (0.00180361605408 6.54550915943e-06 -0.0222506997216)
    Angular velocity: (0.000626534755032 0.00769843884135 5.06928718243e-05)
Execution time for mesh.update() = 0.05 s
GAMGPCG:  Solving for pcorr, Initial residual = 1, Final residual = 7.98788444282e-07, No Iterations 6
time step continuity errors : sum local = 7.68595182063e-12, global = 6.05858896467e-13, cumulative = -0.00212688890956
smoothSolver:  Solving for alpha.water, Initial residual = 1.29659867819e-05, Final residual = 5.46487801687e-11, No Iterations 1
Phase-1 volume fraction = 0.500000000193  Min(alpha.water) = -1.67211045555e-41  Max(alpha.water) = 1.00000422643
Applying the previous iteration compression flux
MULES: Correcting alpha.water
MULES: Correcting alpha.water
MULES: Correcting alpha.water
Phase-1 volume fraction = 0.500000000193  Min(alpha.water) = -1.67211045555e-41  Max(alpha.water) = 1.0000067135
GAMG:  Solving for p_rgh, Initial residual = 0.00013504826277, Final residual = 6.20828830947e-07, No Iterations 2
time step continuity errors : sum local = 1.81740113883e-05, global = -3.26703965718e-06, cumulative = -0.00213015594922
PIMPLE: iteration 2

Restraint horizontalSpring:  attachmentPt - anchor (-3.49980921475 -1.76951497133e-06 -0.000610300613459) spring length 3.49980926796 force (0.0239847410721 1.21267634338e-08 4.18248575616e-06)
6-DoF rigid body motion
    Centre of rotation: (0.500190714975 0.499998221267 0.499825864026)
    Centre of mass: (0.500190714975 0.499998221267 0.499825864026)
    Orientation: (0.999999990608 -4.42478535119e-07 0.000137057105067 4.41049333565e-07 0.999999999946 1.04278116223e-05 -0.000137057109674 -1.04277510755e-05 0.999999990553)
    Linear velocity: (0.00179541698271 5.47009618809e-06 0.0286351749041)
    Angular velocity: (7.06660099895e-05 0.00442404252598 3.11851292604e-05)
Execution time for mesh.update() = 0.05 s
[...]
smoothSolver:  Solving for k, Initial residual = 0.00382812575997, Final residual = 3.8161363604e-07, No Iterations 3
ExecutionTime = 241.67 s  ClockTime = 243 s

Courant Number mean: 0.00269538912815 max: 0.03198946754
Interface Courant Number mean: 0.000231430456496 max: 0.0226101870867
deltaT = 0.02
Time = 4.92

PIMPLE: iteration 1

Restraint horizontalSpring:  attachmentPt - anchor (-3.45291844481 0.00587233136325 0.000537628074597) spring length 3.45292348016 force (0.0202338489057 -3.44114312074e-05 -3.15046109625e-06)
6-DoF rigid body motion
    Centre of rotation: (0.547446046506 0.50591376978 0.50053317911)
    Centre of mass: (0.547446046506 0.50591376978 0.50053317911)
    Orientation: (0.999997872193 0.00202774805487 0.000379272992062 -0.00202777705336 0.999997941163 7.60891777899e-05 -0.000379117921519 -7.68580969571e-05 0.999999925181)
    Linear velocity: (0.0182527628631 0.00207281598419 -0.00020095299791)
    Angular velocity: (6.01040717038e-05 -7.74658371995e-05 -0.000475730188054)
Execution time for mesh.update() = 0.06 s
GAMGPCG:  Solving for pcorr, Initial residual = 1, Final residual = 1.91633713183e-06, No Iterations 5
time step continuity errors : sum local = 6.12472258257e-13, global = 5.07352857623e-13, cumulative = -0.00227646010856
smoothSolver:  Solving for alpha.water, Initial residual = 2.78647491618e-06, Final residual = 2.87352608701e-11, No Iterations 1
Phase-1 volume fraction = 0.499999999391  Min(alpha.water) = 0  Max(alpha.water) = 1.00000206951
Applying the previous iteration compression flux
MULES: Correcting alpha.water
MULES: Correcting alpha.water
MULES: Correcting alpha.water
Phase-1 volume fraction = 0.499999999391  Min(alpha.water) = -2.15683482379e-13  Max(alpha.water) = 1.00000205764
GAMG:  Solving for p_rgh, Initial residual = 1.24281146401e-05, Final residual = 5.08968473266e-08, No Iterations 2
time step continuity errors : sum local = 2.03043137816e-06, global = -1.94555420151e-07, cumulative = -0.00227665466398
PIMPLE: iteration 2

Restraint horizontalSpring:  attachmentPt - anchor (-3.45255395349 0.00591376978007 0.00053317911049) spring length 3.45255905941 force (0.0202046948727 -3.46079787784e-05 -3.12021807192e-06)
6-DoF rigid body motion
    Centre of rotation: (0.547446046108 0.50591376983 0.500533205245)
    Centre of mass: (0.547446046108 0.50591376983 0.500533205245)
    Orientation: (0.999997872193 0.00202774963544 0.000379262416116 -0.0020277786423 0.999997941158 7.61133910231e-05 -0.000379107296374 -7.68822892958e-05 0.999999925183)
    Linear velocity: (0.0182527230456 0.00207282093561 -0.000198339589981)
    Angular velocity: (5.76826914437e-05 -7.85234507298e-05 -0.000475888165249)
Execution time for mesh.update() = 0.05 s
GAMGPCG:  Solving for pcorr, Initial residual = 1, Final residual = 2.4433771442e-06, No Iterations 5
time step continuity errors : sum local = 5.15464684885e-12, global = -6.57349067871e-13, cumulative = -0.00227665466464
smoothSolver:  Solving for alpha.water, Initial residual = 1.75523121528e-06, Final residual = 1.61934151735e-11, No Iterations 1
Phase-1 volume fraction = 0.499999999395  Min(alpha.water) = 0  Max(alpha.water) = 1.0000020695
Applying the previous iteration compression flux
MULES: Correcting alpha.water
MULES: Correcting alpha.water
MULES: Correcting alpha.water
Phase-1 volume fraction = 0.499999999395  Min(alpha.water) = -1.49219696949e-13  Max(alpha.water) = 1.00000205903
GAMG:  Solving for p_rgh, Initial residual = 3.8778014953e-07, Final residual = 4.7418251346e-09, No Iterations 2
time step continuity errors : sum local = 1.89209400744e-07, global = -1.19961004696e-07, cumulative = -0.00227677462564
PIMPLE: iteration 3

Restraint horizontalSpring:  attachmentPt - anchor (-3.45255395389 0.00591376982958 0.00053320524457) spring length 3.45255905982 force (0.0202046949049 -3.46079791192e-05 -3.1203710158e-06)
6-DoF rigid body motion
    Centre of rotation: (0.547446044455 0.505913769572 0.50053316356)
    Centre of mass: (0.547446044455 0.505913769572 0.50053316356)
    Orientation: (0.999997872184 0.00202774999789 0.000379284142658 -0.0020277790007 0.999997941159 7.6098320841e-05 -0.000379129053402 -7.68672633376e-05 0.999999925176)
    Linear velocity: (0.0182525577414 0.00207279519577 -0.000202508031543)
    Angular velocity: (5.91896897968e-05 -7.63507949035e-05 -0.000475924576519)
Execution time for mesh.update() = 0.07 s
GAMGPCG:  Solving for pcorr, Initial residual = 1, Final residual = 2.65328214781e-06, No Iterations 5
time step continuity errors : sum local = 8.03146458021e-13, global = -3.70244132955e-13, cumulative = -0.00227677462601
smoothSolver:  Solving for alpha.water, Initial residual = 1.72350594725e-06, Final residual = 1.6139072586e-11, No Iterations 1
Phase-1 volume fraction = 0.499999999395  Min(alpha.water) = 0  Max(alpha.water) = 1.0000020695
Applying the previous iteration compression flux
MULES: Correcting alpha.water
MULES: Correcting alpha.water
MULES: Correcting alpha.water
Phase-1 volume fraction = 0.499999999395  Min(alpha.water) = -2.17362513224e-13  Max(alpha.water) = 1.00000205984
GAMGPCG:  Solving for p_rgh, Initial residual = 3.86355190519e-08, Final residual = 1.73945245507e-09, No Iterations 1
time step continuity errors : sum local = 6.94082549395e-08, global = -2.15223772243e-08, cumulative = -0.00227679614839
smoothSolver:  Solving for epsilon, Initial residual = 0.00235528894215, Final residual = 1.1933114738e-07, No Iterations 3
smoothSolver:  Solving for k, Initial residual = 0.00381685625106, Final residual = 3.80605177381e-07, No Iterations 3
ExecutionTime = 242.48 s  ClockTime = 244 s

Courant Number mean: 0.00270310982654 max: 0.0322650441441
Interface Courant Number mean: 0.000231400373413 max: 0.0226585693525
deltaT = 0.02
Time = 4.94

PIMPLE: iteration 1

Restraint horizontalSpring:  attachmentPt - anchor (-3.45255395554 0.00591376957218 0.000533163560154) spring length 3.45255906146 force (0.0202046950366 -3.4607977822e-05 -3.12012709323e-06)
6-DoF rigid body motion
    Centre of rotation: (0.547811654892 0.505955242867 0.500529551714)
    Centre of mass: (0.547811654892 0.505955242867 0.500529551714)
    Orientation: (0.999997853254 0.00203724808938 0.000378296708315 -0.00203727659797 0.999997921938 7.49903240433e-05 -0.000378143148297 -7.5760858089e-05 0.999999925634)
    Linear velocity: (0.0183084859056 0.00207453431197 -0.000158676543266)
    Angular velocity: (5.12507579588e-05 -2.24640467229e-05 -0.00047387897075)
Execution time for mesh.update() = 0.07 s
GAMGPCG:  Solving for pcorr, Initial residual = 1, Final residual = 2.59994997518e-06, No Iterations 5
time step continuity errors : sum local = 8.44937688651e-13, global = 7.46520563887e-13, cumulative = -0.00227679614764
smoothSolver:  Solving for alpha.water, Initial residual = 2.82777940678e-06, Final residual = 2.85506304159e-11, No Iterations 1
Phase-1 volume fraction = 0.499999999393  Min(alpha.water) = 0  Max(alpha.water) = 1.00000205914
Applying the previous iteration compression flux
MULES: Correcting alpha.water
MULES: Correcting alpha.water
MULES: Correcting alpha.water
Phase-1 volume fraction = 0.499999999393  Min(alpha.water) = -1.99293477009e-13  Max(alpha.water) = 1.00000205116
GAMG:  Solving for p_rgh, Initial residual = 1.25109994941e-05, Final residual = 5.11425926209e-08, No Iterations 2
time step continuity errors : sum local = 2.04070183192e-06, global = -1.90158990369e-07, cumulative = -0.00227698630663
PIMPLE: iteration 2

Restraint horizontalSpring:  attachmentPt - anchor (-3.45218834511 0.00595524286726 0.000529551714406) spring length 3.45219352231 force (0.0201754515276 -3.48039277676e-05 -3.09483257496e-06)
6-DoF rigid body motion
    Centre of rotation: (0.547811655252 0.505955243293 0.500529569626)
    Centre of mass: (0.547811655252 0.505955243293 0.500529569626)
    Orientation: (0.999997853258 0.00203724813038 0.00037828520461 -0.00203727664807 0.999997921936 7.50167182178e-05 -0.00037813159084 -7.57872287899e-05 0.999999925636)
    Linear velocity: (0.0183085219275 0.00207457693213 -0.000156885335428)
    Angular velocity: (4.86113420598e-05 -2.36144251409e-05 -0.000473882983389)
Execution time for mesh.update() = 0.07 s
GAMGPCG:  Solving for pcorr, Initial residual = 1, Final residual = 2.29610175532e-06, No Iterations 5
time step continuity errors : sum local = 4.86901495291e-12, global = -7.95163723348e-13, cumulative = -0.00227698630743
smoothSolver:  Solving for alpha.water, Initial residual = 1.77842933521e-06, Final residual = 1.63402013567e-11, No Iterations 1
Phase-1 volume fraction = 0.499999999397  Min(alpha.water) = 0  Max(alpha.water) = 1.00000205913
Applying the previous iteration compression flux
MULES: Correcting alpha.water
MULES: Correcting alpha.water
MULES: Correcting alpha.water
Phase-1 volume fraction = 0.499999999397  Min(alpha.water) = -1.34062400007e-13  Max(alpha.water) = 1.00000205114
GAMG:  Solving for p_rgh, Initial residual = 4.23980554024e-07, Final residual = 4.85894643576e-09, No Iterations 2
time step continuity errors : sum local = 1.9387813017e-07, global = -1.16956085664e-07, cumulative = -0.00227710326352
PIMPLE: iteration 3

Restraint horizontalSpring:  attachmentPt - anchor (-3.45218834475 0.00595524329346 0.000529569626484) spring length 3.45219352195 force (0.020175451499 -3.48039302128e-05 -3.09493725357e-06)
6-DoF rigid body motion
    Centre of rotation: (0.547811653724 0.505955243115 0.500529533711)
    Centre of mass: (0.547811653724 0.505955243115 0.500529533711)
    Orientation: (0.999997853251 0.00203724800529 0.000378304906383 -0.00203727651812 0.999997921938 7.49999217756e-05 -0.000378151326801 -7.5770472472e-05 0.99999992563)
    Linear velocity: (0.0183083691912 0.00207455907322 -0.000160476837352)
    Angular velocity: (5.02909854837e-05 -2.16442419626e-05 -0.000473870623483)
Execution time for mesh.update() = 0.06 s
GAMGPCG:  Solving for pcorr, Initial residual = 1, Final residual = 2.22084361718e-06, No Iterations 5
time step continuity errors : sum local = 6.8319099584e-13, global = -3.42459982047e-13, cumulative = -0.00227710326386
smoothSolver:  Solving for alpha.water, Initial residual = 1.74681090398e-06, Final residual = 1.62777947014e-11, No Iterations 1
Phase-1 volume fraction = 0.499999999397  Min(alpha.water) = 0  Max(alpha.water) = 1.00000205913
Applying the previous iteration compression flux
MULES: Correcting alpha.water
MULES: Correcting alpha.water
MULES: Correcting alpha.water
Phase-1 volume fraction = 0.499999999397  Min(alpha.water) = -2.00269282652e-13  Max(alpha.water) = 1.00000205113
GAMGPCG:  Solving for p_rgh, Initial residual = 3.84755849709e-08, Final residual = 1.92405700226e-09, No Iterations 1
time step continuity errors : sum local = 7.67725808289e-08, global = -2.01746240001e-08, cumulative = -0.00227712343848
smoothSolver:  Solving for epsilon, Initial residual = 0.00234886225873, Final residual = 1.19886544543e-07, No Iterations 3
smoothSolver:  Solving for k, Initial residual = 0.00380206890048, Final residual = 3.79528824459e-07, No Iterations 3
ExecutionTime = 243.32 s  ClockTime = 245 s

Courant Number mean: 0.00271078914949 max: 0.0325232968977
Interface Courant Number mean: 0.000230901605149 max: 0.0227014392863
deltaT = 0.02
Time = 4.96

PIMPLE: iteration 1

Restraint horizontalSpring:  attachmentPt - anchor (-3.45218834628 0.00595524311487 0.000529533711465) spring length 3.45219352347 force (0.0201754516208 -3.48039293637e-05 -3.09472737452e-06)
6-DoF rigid body motion
    Centre of rotation: (0.548178377551 0.505996752091 0.500526762931)
    Centre of mass: (0.548178377551 0.505996752091 0.500526762931)
    Orientation: (0.999997833899 0.00204670479633 0.000378414007943 -0.00204673297082 0.999997902696 7.40818910347e-05 -0.000378261590532 -7.48562429925e-05 0.999999925657)
    Linear velocity: (0.0183640134913 0.00207633852893 -0.000116601166048)
    Angular velocity: (4.11545128187e-05 3.24842095059e-05 -0.000471811245639)
Execution time for mesh.update() = 0.06 s
GAMGPCG:  Solving for pcorr, Initial residual = 1, Final residual = 2.52270199923e-06, No Iterations 5
time step continuity errors : sum local = 8.3828333824e-13, global = 7.44838173751e-13, cumulative = -0.00227712343774
smoothSolver:  Solving for alpha.water, Initial residual = 2.87468718635e-06, Final residual = 2.84050073427e-11, No Iterations 1
Phase-1 volume fraction = 0.499999999395  Min(alpha.water) = 0  Max(alpha.water) = 1.00000205091
Applying the previous iteration compression flux
MULES: Correcting alpha.water
MULES: Correcting alpha.water
MULES: Correcting alpha.water
Phase-1 volume fraction = 0.499999999395  Min(alpha.water) = -1.87835192233e-13  Max(alpha.water) = 1.00000204381
GAMG:  Solving for p_rgh, Initial residual = 1.26469345529e-05, Final residual = 5.14228435141e-08, No Iterations 2
time step continuity errors : sum local = 2.05158916591e-06, global = -1.93347580904e-07, cumulative = -0.00227731678532
PIMPLE: iteration 2

Restraint horizontalSpring:  attachmentPt - anchor (-3.45182162245 0.00599675209089 0.000526762931431) spring length 3.45182687163 force (0.0201461190944 -3.49992829921e-05 -3.07438503835e-06)
6-DoF rigid body motion
    Centre of rotation: (0.548178378434 0.505996752546 0.500526761144)
    Centre of mass: (0.548178378434 0.505996752546 0.500526761144)
    Orientation: (0.999997833904 0.0020467049361 0.000378400394112 -0.00204673312089 0.999997902693 7.41118109675e-05 -0.000378247915481 -7.48861350537e-05 0.99999992566)
    Linear velocity: (0.0183641017341 0.00207638405747 -0.000116779893082)
    Angular velocity: (3.81625179155e-05 3.11228168453e-05 -0.000471825121613)
Execution time for mesh.update() = 0.07 s
GAMGPCG:  Solving for pcorr, Initial residual = 1, Final residual = 2.53098342188e-06, No Iterations 5
time step continuity errors : sum local = 5.39641805129e-12, global = -1.1323109188e-12, cumulative = -0.00227731678645
smoothSolver:  Solving for alpha.water, Initial residual = 1.81136949919e-06, Final residual = 1.65569177542e-11, No Iterations 1
Phase-1 volume fraction = 0.499999999399  Min(alpha.water) = 0  Max(alpha.water) = 1.0000020509
Applying the previous iteration compression flux
MULES: Correcting alpha.water
MULES: Correcting alpha.water
MULES: Correcting alpha.water
Phase-1 volume fraction = 0.499999999399  Min(alpha.water) = -1.18885461711e-13  Max(alpha.water) = 1.00000204369
GAMG:  Solving for p_rgh, Initial residual = 4.69476351939e-07, Final residual = 4.83818631711e-09, No Iterations 2
time step continuity errors : sum local = 1.93047253137e-07, global = -1.12026853559e-07, cumulative = -0.0022774288133
PIMPLE: iteration 3

Restraint horizontalSpring:  attachmentPt - anchor (-3.45182162157 0.00599675254618 0.000526761144161) spring length 3.45182687075 force (0.0201461190238 -3.49992855357e-05 -3.07437459719e-06)
6-DoF rigid body motion
    Centre of rotation: (0.548178376994 0.505996752332 0.500526741241)
    Centre of mass: (0.548178376994 0.505996752332 0.500526741241)
    Orientation: (0.999997833898 0.00204670490631 0.000378416674603 -0.00204673308441 0.999997902695 7.40909064415e-05 -0.000378264238726 -7.48652638806e-05 0.999999925656)
    Linear velocity: (0.0183639577726 0.0020763625946 -0.000118770203273)
    Angular velocity: (4.0252967145e-05 3.27508721221e-05 -0.000471822263963)
Execution time for mesh.update() = 0.04 s
GAMGPCG:  Solving for pcorr, Initial residual = 1, Final residual = 2.89169587775e-06, No Iterations 5
time step continuity errors : sum local = 8.87217204291e-13, global = -3.78372480497e-13, cumulative = -0.00227742881368
smoothSolver:  Solving for alpha.water, Initial residual = 1.77932856804e-06, Final residual = 1.64790056872e-11, No Iterations 1
Phase-1 volume fraction = 0.499999999399  Min(alpha.water) = 0  Max(alpha.water) = 1.0000020509
Applying the previous iteration compression flux
MULES: Correcting alpha.water
MULES: Correcting alpha.water
MULES: Correcting alpha.water
Phase-1 volume fraction = 0.499999999399  Min(alpha.water) = -1.89732662297e-13  Max(alpha.water) = 1.00000204372
GAMGPCG:  Solving for p_rgh, Initial residual = 3.49185840883e-08, Final residual = 2.77569018935e-09, No Iterations 1
time step continuity errors : sum local = 1.10752597827e-07, global = -1.472179062e-08, cumulative = -0.00227744353547
smoothSolver:  Solving for epsilon, Initial residual = 0.00231513433035, Final residual = 1.18300448447e-07, No Iterations 3
smoothSolver:  Solving for k, Initial residual = 0.00379697369993, Final residual = 3.75498170528e-07, No Iterations 3
ExecutionTime = 244.13 s  ClockTime = 246 s

Courant Number mean: 0.00271843137043 max: 0.0327605314545
Interface Courant Number mean: 0.000231972082871 max: 0.0227387152241
deltaT = 0.02
Time = 4.98

PIMPLE: iteration 1

Restraint horizontalSpring:  attachmentPt - anchor (-3.45182162301 0.00599675233155 0.000526741241059) spring length 3.45182687219 force (0.0201461191387 -3.49992844681e-05 -3.07425845151e-06)
6-DoF rigid body motion
    Centre of rotation: (0.548546211066 0.506038297787 0.5005247936)
    Centre of mass: (0.548546211066 0.506038297787 0.5005247936)
    Orientation: (0.999997814132 0.00205612075688 0.000379603591382 -0.00205614875583 0.999997883431 7.33828674195e-05 -0.000379451903888 -7.41632284664e-05 0.999999925258)
    Linear velocity: (0.0184194494194 0.0020781829494 -7.5993931921e-05)
    Angular velocity: (3.01939819647e-05 8.58716308831e-05 -0.000469773591521)
Execution time for mesh.update() = 0.08 s
GAMGPCG:  Solving for pcorr, Initial residual = 1, Final residual = 2.25141186338e-06, No Iterations 5
time step continuity errors : sum local = 8.16668241171e-13, global = 7.15103254793e-13, cumulative = -0.00227744353476
smoothSolver:  Solving for alpha.water, Initial residual = 2.92640474965e-06, Final residual = 2.82811525806e-11, No Iterations 1
Phase-1 volume fraction = 0.499999999397  Min(alpha.water) = 0  Max(alpha.water) = 1.00000204634
Applying the previous iteration compression flux
MULES: Correcting alpha.water
MULES: Correcting alpha.water
MULES: Correcting alpha.water
Phase-1 volume fraction = 0.499999999397  Min(alpha.water) = -1.67554425523e-13  Max(alpha.water) = 1.00000204633
GAMG:  Solving for p_rgh, Initial residual = 1.28084637357e-05, Final residual = 5.18739085604e-08, No Iterations 2
time step continuity errors : sum local = 2.06981940745e-06, global = -1.77580277597e-07, cumulative = -0.00227762111504
PIMPLE: iteration 2

Restraint horizontalSpring:  attachmentPt - anchor (-3.45145378893 0.00603829778699 0.000524793599707) spring length 3.45145911081 force (0.0201166978464 -3.51940427182e-05 -3.05874420538e-06)
6-DoF rigid body motion
    Centre of rotation: (0.548546212442 0.506038298243 0.500524789049)
    Centre of mass: (0.548546212442 0.506038298243 0.500524789049)
    Orientation: (0.999997814138 0.00205612119575 0.000379586152342 -0.00205614920403 0.999997883428 7.34108840695e-05 -0.000379434407246 -7.41912093685e-05 0.999999925263)
    Linear velocity: (0.0184195870398 0.00207822858302 -7.64490262021e-05)
    Angular velocity: (2.7392305048e-05 8.41277157036e-05 -0.000469817349717)
Execution time for mesh.update() = 0.05 s
GAMGPCG:  Solving for pcorr, Initial residual = 1, Final residual = 3.18450954708e-06, No Iterations 5
time step continuity errors : sum local = 6.84989254564e-12, global = -1.9524069324e-12, cumulative = -0.00227762111699
smoothSolver:  Solving for alpha.water, Initial residual = 1.84393834681e-06, Final residual = 1.67332613376e-11, No Iterations 1
Phase-1 volume fraction = 0.4999999994  Min(alpha.water) = 0  Max(alpha.water) = 1.00000204633
Applying the previous iteration compression flux
MULES: Correcting alpha.water
MULES: Correcting alpha.water
MULES: Correcting alpha.water
Phase-1 volume fraction = 0.4999999994  Min(alpha.water) = -9.6449215958e-14  Max(alpha.water) = 1.00000204633
