/*---------------------------------------------------------------------------*\
| =========                 |                                                 |
| \\      /  F ield         | OpenFOAM: The Open Source CFD Toolbox           |
|  \\    /   O peration     | Version:  3.0.1                                 |
|   \\  /    A nd           | Web:      www.OpenFOAM.org                      |
|    \\/     M anipulation  |                                                 |
\*---------------------------------------------------------------------------*/
Build  : 3.0.1-d8a290b55d28
Exec   : interDyMFoam
Date   : May 30 2016
Time   : 15:14:48
Host   : "evankielley-VirtualBox"
PID    : 5080
Case   : /home/evankielley/OpenFOAM/evankielley-3.0.1/run/case201
nProcs : 1
sigFpe : Enabling floating point exception trapping (FOAM_SIGFPE).
fileModificationChecking : Monitoring run-time modified files using timeStampMaster
allowSystemOperations : Allowing user-supplied system call operations

// * * * * * * * * * * * * * * * * * * * * * * * * * * * * * * * * * * * * * //
Create time

Create mesh for time = 0

Using #calcEntry at line 40 in file "/home/evankielley/OpenFOAM/evankielley-3.0.1/run/case201/constant/dynamicMeshDict.sixDoFRigidBodyMotionCoeffs"
Using #codeStream with "/home/evankielley/OpenFOAM/evankielley-3.0.1/run/case201/dynamicCode/platforms/linux64GccDPInt64Opt/lib/libcodeStream_a0640cbac1206dd19ab725737df7229c42819b1b.so"
Creating new library in "dynamicCode/_a0640cbac1206dd19ab725737df7229c42819b1b/platforms/linux64GccDPInt64Opt/lib/libcodeStream_a0640cbac1206dd19ab725737df7229c42819b1b.so"
Invoking "wmake -s libso /home/evankielley/OpenFOAM/evankielley-3.0.1/run/case201/dynamicCode/_a0640cbac1206dd19ab725737df7229c42819b1b"
wmakeLnInclude: linking include files to ./lnInclude
Making dependency list for source file codeStreamTemplate.C
'/home/evankielley/OpenFOAM/evankielley-3.0.1/run/case201/dynamicCode/_a0640cbac1206dd19ab725737df7229c42819b1b/../platforms/linux64GccDPInt64Opt/lib/libcodeStream_a0640cbac1206dd19ab725737df7229c42819b1b.so' is up to date.
Using #codeStream at line 43 in file "/home/evankielley/OpenFOAM/evankielley-3.0.1/run/case201/constant/dynamicMeshDict.sixDoFRigidBodyMotionCoeffs"
Using #codeStream with "/home/evankielley/OpenFOAM/evankielley-3.0.1/run/case201/dynamicCode/platforms/linux64GccDPInt64Opt/lib/libcodeStream_cf371c8fdd012c5da10c80ca370db81476b8f387.so"
Creating new library in "dynamicCode/_cf371c8fdd012c5da10c80ca370db81476b8f387/platforms/linux64GccDPInt64Opt/lib/libcodeStream_cf371c8fdd012c5da10c80ca370db81476b8f387.so"
Invoking "wmake -s libso /home/evankielley/OpenFOAM/evankielley-3.0.1/run/case201/dynamicCode/_cf371c8fdd012c5da10c80ca370db81476b8f387"
wmakeLnInclude: linking include files to ./lnInclude
Making dependency list for source file codeStreamTemplate.C
'/home/evankielley/OpenFOAM/evankielley-3.0.1/run/case201/dynamicCode/_cf371c8fdd012c5da10c80ca370db81476b8f387/../platforms/linux64GccDPInt64Opt/lib/libcodeStream_cf371c8fdd012c5da10c80ca370db81476b8f387.so' is up to date.
Selecting dynamicFvMesh dynamicMotionSolverFvMesh
Using #calcEntry at line 40 in file "/home/evankielley/OpenFOAM/evankielley-3.0.1/run/case201/constant/dynamicMeshDict.sixDoFRigidBodyMotionCoeffs"
Using #codeStream with "/home/evankielley/OpenFOAM/evankielley-3.0.1/run/case201/dynamicCode/platforms/linux64GccDPInt64Opt/lib/libcodeStream_a0640cbac1206dd19ab725737df7229c42819b1b.so"
Using #codeStream at line 43 in file "/home/evankielley/OpenFOAM/evankielley-3.0.1/run/case201/constant/dynamicMeshDict.sixDoFRigidBodyMotionCoeffs"
Using #codeStream with "/home/evankielley/OpenFOAM/evankielley-3.0.1/run/case201/dynamicCode/platforms/linux64GccDPInt64Opt/lib/libcodeStream_cf371c8fdd012c5da10c80ca370db81476b8f387.so"
Selecting motion solver: sixDoFRigidBodyMotion
Using #calcEntry at line 40 in file "/home/evankielley/OpenFOAM/evankielley-3.0.1/run/case201/constant/dynamicMeshDict.sixDoFRigidBodyMotionCoeffs"
Using #codeStream with "/home/evankielley/OpenFOAM/evankielley-3.0.1/run/case201/dynamicCode/platforms/linux64GccDPInt64Opt/lib/libcodeStream_a0640cbac1206dd19ab725737df7229c42819b1b.so"
Using #codeStream at line 43 in file "/home/evankielley/OpenFOAM/evankielley-3.0.1/run/case201/constant/dynamicMeshDict.sixDoFRigidBodyMotionCoeffs"
Using #codeStream with "/home/evankielley/OpenFOAM/evankielley-3.0.1/run/case201/dynamicCode/platforms/linux64GccDPInt64Opt/lib/libcodeStream_cf371c8fdd012c5da10c80ca370db81476b8f387.so"
Selecting sixDoFSolver Newmark

PIMPLE: no residual control data found. Calculations will employ 3 corrector loops

Reading field p_rgh

Reading field U

Reading/calculating face flux field phi

Reading transportProperties

Selecting incompressible transport model Newtonian
Selecting incompressible transport model Newtonian
Selecting turbulence model type RAS
Selecting RAS turbulence model kEpsilon
kEpsilonCoeffs
{
    Cmu             0.09;
    C1              1.44;
    C2              1.92;
    C3              -0.33;
    sigmak          1;
    sigmaEps        1.3;
}


Reading g

Reading hRef
Calculating field g.h

No MRF models present

No finite volume options present

GAMGPCG:  Solving for pcorr, Initial residual = 0, Final residual = 0, No Iterations 0
time step continuity errors : sum local = 0, global = 0, cumulative = 0
Reading/calculating face velocity Uf

Courant Number mean: 0 max: 0

Starting time loop

Courant Number mean: 0 max: 0
Interface Courant Number mean: 0 max: 0
deltaT = 0.0111111111111
Time = 0.0111111

PIMPLE: iteration 1

6-DoF rigid body motion
    Centre of rotation: (0.5 0.5 0.497886320444)
    Centre of mass: (0.5 0.5 0.497886320444)
    Orientation: (1 5.57681473019e-18 -2.49078985318e-17 -5.57681473019e-18 1 -1.62728305625e-17 2.49078985318e-17 1.62728305625e-17 1)
    Linear velocity: (-1.38161087509e-17 1.38161087509e-17 -0.38046232)
    Angular velocity: (2.92910950125e-15 -4.48342173572e-15 -1.00382665143e-15)
Execution time for mesh.update() = 0.04 s
GAMGPCG:  Solving for pcorr, Initial residual = 1, Final residual = 1.0045672143e-06, No Iterations 6
time step continuity errors : sum local = 1.7054885006e-10, global = -7.51245070135e-11, cumulative = -7.51245070135e-11
smoothSolver:  Solving for alpha.water, Initial residual = 0.000725821956289, Final residual = 1.47726170926e-11, No Iterations 2
Phase-1 volume fraction = 0.54819277107  Min(alpha.water) = 0  Max(alpha.water) = 1.00000000054
MULES: Correcting alpha.water
MULES: Correcting alpha.water
Phase-1 volume fraction = 0.54819277107  Min(alpha.water) = 0  Max(alpha.water) = 1.00000000054
GAMG:  Solving for p_rgh, Initial residual = 1, Final residual = 0.00614001898544, No Iterations 2
time step continuity errors : sum local = 0.00340020362846, global = -0.000711999724859, cumulative = -0.000711999799983
PIMPLE: iteration 2

6-DoF rigid body motion
    Centre of rotation: (0.49999992519 0.499999899427 0.499359265321)
    Centre of mass: (0.49999992519 0.499999899427 0.499359265321)
    Orientation: (0.999999999976 -1.03670454135e-07 6.95870250244e-06 1.03630179622e-07 0.999999999983 5.7876470402e-06 -6.95870310233e-06 -5.78764631892e-06 0.999999999959)
    Linear velocity: (-1.34657238219e-05 -1.81030997283e-05 -0.115332242284)
    Angular velocity: (-0.00104177636339 0.00125256653684 1.86570570377e-05)
Execution time for mesh.update() = 0.02 s
GAMGPCG:  Solving for pcorr, Initial residual = 1, Final residual = 2.44398423589e-06, No Iterations 5
time step continuity errors : sum local = 8.52063490826e-09, global = 7.46896012085e-09, cumulative = -0.000711992331023
smoothSolver:  Solving for alpha.water, Initial residual = 0.000513287119097, Final residual = 7.96928160029e-12, No Iterations 2
Phase-1 volume fraction = 0.548192771092  Min(alpha.water) = 0  Max(alpha.water) = 1.00000020346
Applying the previous iteration compression flux
MULES: Correcting alpha.water
MULES: Correcting alpha.water
MULES: Correcting alpha.water
Phase-1 volume fraction = 0.548192771092  Min(alpha.water) = 0  Max(alpha.water) = 1.00000020346
GAMG:  Solving for p_rgh, Initial residual = 0.00271947740601, Final residual = 1.4147084934e-05, No Iterations 3
time step continuity errors : sum local = 0.000240078067667, global = -0.000194863883153, cumulative = -0.000906856214176
PIMPLE: iteration 3

6-DoF rigid body motion
    Centre of rotation: (0.499999943332 0.49999995087 0.500168546881)
    Centre of mass: (0.499999943332 0.49999995087 0.500168546881)
    Orientation: (0.999999999999 -2.19067274544e-08 1.32207038543e-06 2.19048886697e-08 0.999999999999 1.39083721382e-06 -1.3220704159e-06 -1.39083718486e-06 0.999999999998)
    Linear velocity: (-1.02002245782e-05 -8.84334826449e-06 0.0303384386628)
    Angular velocity: (-0.000250350694318 0.000237972673765 3.94304545116e-06)
Execution time for mesh.update() = 0.06 s
GAMGPCG:  Solving for pcorr, Initial residual = 1, Final residual = 1.3315144652e-06, No Iterations 5
time step continuity errors : sum local = 4.09118345161e-10, global = 3.22219838929e-10, cumulative = -0.000906855891956
smoothSolver:  Solving for alpha.water, Initial residual = 0.000278512667778, Final residual = 8.30949887891e-09, No Iterations 1
Phase-1 volume fraction = 0.548192779308  Min(alpha.water) = 0  Max(alpha.water) = 1.00000004607
Applying the previous iteration compression flux
MULES: Correcting alpha.water
MULES: Correcting alpha.water
MULES: Correcting alpha.water
Phase-1 volume fraction = 0.548192779308  Min(alpha.water) = -6.59111323363e-31  Max(alpha.water) = 1.00000001064
GAMGPCG:  Solving for p_rgh, Initial residual = 0.000862438190411, Final residual = 3.28693756258e-09, No Iterations 4
time step continuity errors : sum local = 8.25977680304e-08, global = 3.15795336064e-08, cumulative = -0.000906824312422
smoothSolver:  Solving for epsilon, Initial residual = 0.0107802333563, Final residual = 1.92224931308e-07, No Iterations 4
smoothSolver:  Solving for k, Initial residual = 0.999999999987, Final residual = 8.13117274134e-07, No Iterations 6
ExecutionTime = 0.57 s  ClockTime = 2 s

Courant Number mean: 0.00119612783714 max: 0.0314290588145
Interface Courant Number mean: 0.000118699963149 max: 0.0245232340196
deltaT = 0.0126984126984
Time = 0.0238095

PIMPLE: iteration 1

6-DoF rigid body motion
    Centre of rotation: (0.499999722749 0.499999758069 0.501054673551)
    Centre of mass: (0.499999722749 0.499999758069 0.501054673551)
    Orientation: (0.999999999979 -1.04972357737e-07 6.44971545581e-06 1.04928889223e-07 0.999999999977 6.73960183457e-06 -6.44971616314e-06 -6.73960115767e-06 0.999999999956)
    Linear velocity: (-2.45416356458e-05 -2.152287935e-05 0.109226511783)
    Angular velocity: (-0.000592079662977 0.000569631498695 9.13649738039e-06)
Execution time for mesh.update() = 0.03 s
GAMGPCG:  Solving for pcorr, Initial residual = 1, Final residual = 3.29909152468e-06, No Iterations 5
time step continuity errors : sum local = 3.60597742907e-10, global = 1.48863647749e-10, cumulative = -0.000906824163559
smoothSolver:  Solving for alpha.water, Initial residual = 0.000307639312125, Final residual = 1.80088472939e-09, No Iterations 1
Phase-1 volume fraction = 0.548192780943  Min(alpha.water) = -6.58851699126e-31  Max(alpha.water) = 1.00000000509
Applying the previous iteration compression flux
MULES: Correcting alpha.water
MULES: Correcting alpha.water
MULES: Correcting alpha.water
Phase-1 volume fraction = 0.548192780943  Min(alpha.water) = -6.58851699126e-31  Max(alpha.water) = 1.00000004308
GAMG:  Solving for p_rgh, Initial residual = 0.000592304685436, Final residual = 1.77713539508e-06, No Iterations 2
time step continuity errors : sum local = 3.47851050339e-05, global = 1.35984541177e-05, cumulative = -0.000893225709441
PIMPLE: iteration 2

6-DoF rigid body motion
    Centre of rotation: (0.499999781337 0.499999819112 0.500612904478)
    Centre of mass: (0.499999781337 0.499999819112 0.500612904478)
    Orientation: (0.999999999989 -8.32288195493e-08 4.59624740543e-06 8.32062043882e-08 0.999999999988 4.92035326753e-06 -4.59624781489e-06 -4.92035288504e-06 0.999999999977)
    Linear velocity: (-1.53139357471e-05 -1.19086314744e-05 0.0396478828142)
    Angular velocity: (-0.000305548044407 0.00027771024902 5.71357700306e-06)
Execution time for mesh.update() = 0.03 s
GAMGPCG:  Solving for pcorr, Initial residual = 1, Final residual = 2.12447989718e-06, No Iterations 5
time step continuity errors : sum local = 2.24836652618e-10, global = 1.72521243345e-10, cumulative = -0.00089322553692
smoothSolver:  Solving for alpha.water, Initial residual = 0.0001585734624, Final residual = 3.3718575603e-09, No Iterations 1
Phase-1 volume fraction = 0.548192775983  Min(alpha.water) = -6.58826495523e-31  Max(alpha.water) = 1.00000000523
Applying the previous iteration compression flux
MULES: Correcting alpha.water
MULES: Correcting alpha.water
MULES: Correcting alpha.water
Phase-1 volume fraction = 0.548192775983  Min(alpha.water) = -6.58826495523e-31  Max(alpha.water) = 1.00000000368
GAMG:  Solving for p_rgh, Initial residual = 0.000282077856627, Final residual = 7.0496950953e-07, No Iterations 2
time step continuity errors : sum local = 1.36077707037e-05, global = 2.17819453784e-06, cumulative = -0.000891047342382
PIMPLE: iteration 3

6-DoF rigid body motion
    Centre of rotation: (0.49999975568 0.499999781453 0.500829278199)
    Centre of mass: (0.49999975568 0.499999781453 0.500829278199)
    Orientation: (0.999999999984 -1.00419131722e-07 5.57993694609e-06 1.00386844587e-07 0.999999999983 5.78629020962e-06 -5.57993752705e-06 -5.78628964938e-06 0.999999999968)
    Linear velocity: (-1.93550323112e-05 -1.78399202869e-05 0.0737267438101)
    Angular velocity: (-0.000441933092183 0.000432641372537 8.42023171759e-06)
Execution time for mesh.update() = 0.03 s
GAMGPCG:  Solving for pcorr, Initial residual = 1, Final residual = 2.78337642218e-06, No Iterations 5
time step continuity errors : sum local = 1.41069869892e-10, global = -1.13995144216e-10, cumulative = -0.000891047456377
smoothSolver:  Solving for alpha.water, Initial residual = 0.000155066800853, Final residual = 1.95977066871e-09, No Iterations 1
Phase-1 volume fraction = 0.548192777989  Min(alpha.water) = -6.58809233617e-31  Max(alpha.water) = 1.00000000514
Applying the previous iteration compression flux
MULES: Correcting alpha.water
MULES: Correcting alpha.water
MULES: Correcting alpha.water
Phase-1 volume fraction = 0.548192777989  Min(alpha.water) = -6.58809233617e-31  Max(alpha.water) = 1.00000000146
GAMGPCG:  Solving for p_rgh, Initial residual = 0.000138354544936, Final residual = 4.82820508332e-09, No Iterations 3
time step continuity errors : sum local = 9.39700589678e-08, global = -7.20361281201e-09, cumulative = -0.00089105465999
smoothSolver:  Solving for epsilon, Initial residual = 0.0103148137543, Final residual = 6.98286236863e-07, No Iterations 3
smoothSolver:  Solving for k, Initial residual = 0.60876921275, Final residual = 3.1382960456e-07, No Iterations 5
ExecutionTime = 0.97 s  ClockTime = 2 s

Courant Number mean: 0.00427307224638 max: 0.0556478148948
Interface Courant Number mean: 0.000532735527987 max: 0.0525446118526
deltaT = 0.0126984126984
Time = 0.0365079

PIMPLE: iteration 1

6-DoF rigid body motion
    Centre of rotation: (0.499999552509 0.499999584716 0.501765572042)
    Centre of mass: (0.499999552509 0.499999584716 0.501765572042)
    Orientation: (0.999999999953 -2.0038345501e-07 9.64556724664e-06 2.00288788122e-07 0.999999999952 9.81454852087e-06 -9.64556921285e-06 -9.81454658852e-06 0.999999999905)
    Linear velocity: (-1.26442699627e-05 -1.31460964357e-05 0.0737395364378)
    Angular velocity: (-0.00019251744386 0.000207695551879 7.31910035876e-06)
Execution time for mesh.update() = 0.02 s
GAMGPCG:  Solving for pcorr, Initial residual = 1, Final residual = 2.35217770302e-06, No Iterations 5
time step continuity errors : sum local = 6.5816172487e-11, global = -1.85678803384e-11, cumulative = -0.000891054678558
smoothSolver:  Solving for alpha.water, Initial residual = 0.000325176135193, Final residual = 2.37539324859e-09, No Iterations 1
Phase-1 volume fraction = 0.548192779884  Min(alpha.water) = -6.584455327e-31  Max(alpha.water) = 1.00000002645
Applying the previous iteration compression flux
MULES: Correcting alpha.water
MULES: Correcting alpha.water
MULES: Correcting alpha.water
Phase-1 volume fraction = 0.548192779884  Min(alpha.water) = -6.584455327e-31  Max(alpha.water) = 1.00000012135
GAMG:  Solving for p_rgh, Initial residual = 0.000674075516431, Final residual = 1.96158624442e-06, No Iterations 2
time step continuity errors : sum local = 3.83015290481e-05, global = -5.90970482467e-06, cumulative = -0.000896964383382
PIMPLE: iteration 2

6-DoF rigid body motion
    Centre of rotation: (0.499999485944 0.499999522227 0.502414560475)
    Centre of mass: (0.499999485944 0.499999522227 0.502414560475)
    Orientation: (0.999999999928 -2.28050144912e-07 1.20355355877e-05 2.27901450774e-07 0.999999999924 1.23545924878e-05 -1.20355384043e-05 -1.2354589744e-05 0.999999999851)
    Linear velocity: (-2.31282588626e-05 -2.29880548455e-05 0.175955214668)
    Angular velocity: (-0.000592574299999 0.000584115636526 1.16724192024e-05)
Execution time for mesh.update() = 0.04 s
GAMGPCG:  Solving for pcorr, Initial residual = 1, Final residual = 2.73750111337e-06, No Iterations 5
time step continuity errors : sum local = 3.69646978125e-10, global = -2.94618796034e-10, cumulative = -0.000896964678001
smoothSolver:  Solving for alpha.water, Initial residual = 0.000392082214877, Final residual = 9.3934810723e-09, No Iterations 1
Phase-1 volume fraction = 0.548192780093  Min(alpha.water) = -6.58417450816e-31  Max(alpha.water) = 1.00000002633
Applying the previous iteration compression flux
MULES: Correcting alpha.water
MULES: Correcting alpha.water
MULES: Correcting alpha.water
Phase-1 volume fraction = 0.548192780093  Min(alpha.water) = -6.58417450816e-31  Max(alpha.water) = 1.00000001917
GAMG:  Solving for p_rgh, Initial residual = 0.000458050799519, Final residual = 3.58405758427e-06, No Iterations 1
time step continuity errors : sum local = 7.11074282678e-05, global = -1.50249538299e-06, cumulative = -0.000898467173384
PIMPLE: iteration 3

6-DoF rigid body motion
    Centre of rotation: (0.49999986107 0.499999882899 0.50218197931)
    Centre of mass: (0.49999986107 0.499999882899 0.50218197931)
    Orientation: (0.999999999943 -9.13928278686e-08 1.07138837455e-05 9.12807090938e-08 0.999999999945 1.04648116128e-05 -1.07138847014e-05 -1.04648106342e-05 0.999999999888)
    Linear velocity: (3.59539868546e-05 3.38177773616e-05 0.139323681208)
    Angular velocity: (-0.00029493408985 0.000375955191421 -9.84868960558e-06)
Execution time for mesh.update() = 0.02 s
GAMGPCG:  Solving for pcorr, Initial residual = 1, Final residual = 4.64245967565e-07, No Iterations 5
time step continuity errors : sum local = 4.63737714329e-11, global = -3.55115479835e-11, cumulative = -0.000898467208896
smoothSolver:  Solving for alpha.water, Initial residual = 0.000210166801106, Final residual = 7.48050886339e-09, No Iterations 1
Phase-1 volume fraction = 0.548192773752  Min(alpha.water) = -6.58427277365e-31  Max(alpha.water) = 1.00000002643
Applying the previous iteration compression flux
MULES: Correcting alpha.water
MULES: Correcting alpha.water
MULES: Correcting alpha.water
Phase-1 volume fraction = 0.548192773752  Min(alpha.water) = -6.58427277365e-31  Max(alpha.water) = 1.00000002271
GAMGPCG:  Solving for p_rgh, Initial residual = 0.000169842456468, Final residual = 7.04407005396e-09, No Iterations 3
time step continuity errors : sum local = 1.39452678399e-07, global = 9.42163615495e-08, cumulative = -0.000898372992534
smoothSolver:  Solving for epsilon, Initial residual = 0.0066299342443, Final residual = 6.98435644514e-07, No Iterations 3
smoothSolver:  Solving for k, Initial residual = 0.344236654817, Final residual = 1.89026310349e-07, No Iterations 5
ExecutionTime = 1.38 s  ClockTime = 3 s

Courant Number mean: 0.00603535618458 max: 0.0716147985577
Interface Courant Number mean: 0.0004993642956 max: 0.038459588327
deltaT = 0.0126984126984
Time = 0.0492063

PIMPLE: iteration 1

6-DoF rigid body motion
    Centre of rotation: (0.500000678012 0.500000660338 0.504744649938)
    Centre of mass: (0.500000678012 0.500000660338 0.504744649938)
    Orientation: (0.999999999863 1.60940246855e-07 1.65324372821e-05 -1.61185822295e-07 0.99999999989 1.4854158022e-05 -1.65324348897e-05 -1.48541606848e-05 0.999999999753)
    Linear velocity: (9.2714391584e-05 8.86288732204e-05 0.2642969427)
    Angular velocity: (-0.000396388618285 0.000540466403928 -2.99054369813e-05)
Execution time for mesh.update() = 0.03 s
GAMGPCG:  Solving for pcorr, Initial residual = 1, Final residual = 1.62000020094e-06, No Iterations 6
time step continuity errors : sum local = 2.46148437742e-10, global = -2.24768723357e-10, cumulative = -0.000898373217303
smoothSolver:  Solving for alpha.water, Initial residual = 0.000885760238891, Final residual = 2.60763228999e-11, No Iterations 2
Phase-1 volume fraction = 0.548192773778  Min(alpha.water) = -6.57948764276e-31  Max(alpha.water) = 1.00000002881
Applying the previous iteration compression flux
MULES: Correcting alpha.water
MULES: Correcting alpha.water
MULES: Correcting alpha.water
Phase-1 volume fraction = 0.548192773778  Min(alpha.water) = -6.57948764276e-31  Max(alpha.water) = 1.00000015102
GAMG:  Solving for p_rgh, Initial residual = 0.00129419026907, Final residual = 3.69321082948e-06, No Iterations 2
time step continuity errors : sum local = 7.32000649945e-05, global = 1.69884225994e-05, cumulative = -0.000881384794704
PIMPLE: iteration 2

6-DoF rigid body motion
    Centre of rotation: (0.500000613507 0.500000663619 0.503857385341)
    Centre of mass: (0.500000613507 0.500000663619 0.503857385341)
    Orientation: (0.999999999929 1.76921519947e-07 1.1887779119e-05 -1.77058394117e-07 0.999999999934 1.15138553464e-05 -1.18877770811e-05 -1.15138574505e-05 0.999999999863)
    Linear velocity: (8.25548552855e-05 8.91455878884e-05 0.124552768632)
    Angular velocity: (0.000129709119981 -0.000191067216616 -3.24128038005e-05)
Execution time for mesh.update() = 0.03 s
GAMGPCG:  Solving for pcorr, Initial residual = 1, Final residual = 1.93630595791e-06, No Iterations 5
time step continuity errors : sum local = 4.02029196112e-10, global = 3.01511513302e-10, cumulative = -0.000881384493192
smoothSolver:  Solving for alpha.water, Initial residual = 0.000369572374889, Final residual = 9.13200500861e-09, No Iterations 1
Phase-1 volume fraction = 0.54819277161  Min(alpha.water) = -6.5802817616e-31  Max(alpha.water) = 1.00000002918
Applying the previous iteration compression flux
MULES: Correcting alpha.water
MULES: Correcting alpha.water
MULES: Correcting alpha.water
Phase-1 volume fraction = 0.54819277161  Min(alpha.water) = -6.5802817616e-31  Max(alpha.water) = 1.00000011028
GAMG:  Solving for p_rgh, Initial residual = 0.000251472999912, Final residual = 1.45166425802e-06, No Iterations 2
time step continuity errors : sum local = 2.84962238511e-05, global = 1.71072996788e-06, cumulative = -0.000879673763224
PIMPLE: iteration 3

6-DoF rigid body motion
    Centre of rotation: (0.500000628014 0.500000612226 0.504269860858)
    Centre of mass: (0.500000628014 0.500000612226 0.504269860858)
    Orientation: (0.999999999882 1.37567099204e-07 1.53912213447e-05 -1.37778750702e-07 0.999999999905 1.37514424178e-05 -1.53912194514e-05 -1.37514445367e-05 0.999999999787)
    Linear velocity: (8.4839702646e-05 8.1051080208e-05 0.189517662668)
    Angular velocity: (-0.000222710823478 0.000360724973079 -2.62215626062e-05)
Execution time for mesh.update() = 0.03 s
GAMGPCG:  Solving for pcorr, Initial residual = 1, Final residual = 2.32050006389e-06, No Iterations 5
time step continuity errors : sum local = 2.10816627416e-10, global = -1.75215054815e-10, cumulative = -0.000879673938439
smoothSolver:  Solving for alpha.water, Initial residual = 0.000415733271295, Final residual = 4.82889368843e-12, No Iterations 2
Phase-1 volume fraction = 0.548192773755  Min(alpha.water) = -6.57982157396e-31  Max(alpha.water) = 1.00000002871
Applying the previous iteration compression flux
MULES: Correcting alpha.water
MULES: Correcting alpha.water
MULES: Correcting alpha.water
Phase-1 volume fraction = 0.548192773755  Min(alpha.water) = -6.57982157396e-31  Max(alpha.water) = 1.00000012105
GAMGPCG:  Solving for p_rgh, Initial residual = 0.00012713205049, Final residual = 4.01414783206e-09, No Iterations 3
time step continuity errors : sum local = 7.83581181317e-08, global = -9.38873129995e-09, cumulative = -0.000879683327171
smoothSolver:  Solving for epsilon, Initial residual = 0.00572954483467, Final residual = 8.75350742652e-07, No Iterations 3
smoothSolver:  Solving for k, Initial residual = 0.230278330748, Final residual = 1.54033044822e-07, No Iterations 5
ExecutionTime = 1.79 s  ClockTime = 3 s

Courant Number mean: 0.00925228831417 max: 0.0793495404544
Interface Courant Number mean: 0.000838225178802 max: 0.0605016938779
deltaT = 0.0126984126984
Time = 0.0619048

PIMPLE: iteration 1

6-DoF rigid body motion
    Centre of rotation: (0.5000016802 0.50000161902 0.506382898999)
    Centre of mass: (0.5000016802 0.50000161902 0.506382898999)
    Orientation: (0.999999999826 4.5788292365e-07 1.86389516448e-05 -4.58169847277e-07 0.999999999881 1.53937628228e-05 -1.86389445941e-05 -1.53937713599e-05 0.999999999708)
    Linear velocity: (8.08795671379e-05 7.7518993426e-05 0.14328584444)
    Angular velocity: (-3.59555784706e-05 0.000150791760896 -2.42357647573e-05)
Execution time for mesh.update() = 0.02 s
GAMGPCG:  Solving for pcorr, Initial residual = 1, Final residual = 2.59897968814e-06, No Iterations 6
time step continuity errors : sum local = 1.77024559459e-10, global = 1.33645694751e-10, cumulative = -0.000879683193525
smoothSolver:  Solving for alpha.water, Initial residual = 0.000730650613313, Final residual = 8.90190573123e-12, No Iterations 2
Phase-1 volume fraction = 0.548192773764  Min(alpha.water) = -6.57542987668e-31  Max(alpha.water) = 1.00000012692
Applying the previous iteration compression flux
MULES: Correcting alpha.water
MULES: Correcting alpha.water
MULES: Correcting alpha.water
Phase-1 volume fraction = 0.548192773764  Min(alpha.water) = -6.57542987668e-31  Max(alpha.water) = 1.00000011378
GAMG:  Solving for p_rgh, Initial residual = 0.000666475502802, Final residual = 4.49834234142e-06, No Iterations 2
time step continuity errors : sum local = 8.81236837256e-05, global = -1.25776202584e-05, cumulative = -0.000892260813783
PIMPLE: iteration 2

6-DoF rigid body motion
    Centre of rotation: (0.500001593494 0.500001483918 0.507360588199)
    Centre of mass: (0.500001593494 0.500001483918 0.507360588199)
    Orientation: (0.999999999834 4.19656620228e-07 1.82302852346e-05 -4.19910726416e-07 0.999999999903 1.39386825788e-05 -1.82302793834e-05 -1.39386902316e-05 0.999999999737)
    Linear velocity: (6.72234820662e-05 5.62405466068e-05 0.297271893552)
    Angular velocity: (0.000193219685947 8.64269140686e-05 -1.82142925528e-05)
Execution time for mesh.update() = 0.03 s
GAMGPCG:  Solving for pcorr, Initial residual = 1, Final residual = 2.8356679941e-06, No Iterations 6
time step continuity errors : sum local = 6.6664442705e-10, global = -4.97083839047e-10, cumulative = -0.000892261310867
smoothSolver:  Solving for alpha.water, Initial residual = 0.000355610654271, Final residual = 2.71046857699e-11, No Iterations 2
Phase-1 volume fraction = 0.548192773782  Min(alpha.water) = -6.57474698605e-31  Max(alpha.water) = 1.0000001267
Applying the previous iteration compression flux
MULES: Correcting alpha.water
MULES: Correcting alpha.water
MULES: Correcting alpha.water
Phase-1 volume fraction = 0.548192773782  Min(alpha.water) = -6.57474698605e-31  Max(alpha.water) = 1.00000009013
GAMG:  Solving for p_rgh, Initial residual = 0.000296106964142, Final residual = 6.0822360112e-07, No Iterations 2
time step continuity errors : sum local = 1.19976714217e-05, global = 1.41911507669e-06, cumulative = -0.00089084219579
PIMPLE: iteration 3

6-DoF rigid body motion
    Centre of rotation: (0.500001617858 0.500001545365 0.506953919824)
    Centre of mass: (0.500001617858 0.500001545365 0.506953919824)
    Orientation: (0.999999999787 4.41621690485e-07 2.06509747282e-05 -4.4197599258e-07 0.999999999853 1.71566752152e-05 -2.06509671484e-05 -1.71566843387e-05 0.99999999964)
    Linear velocity: (7.10607406952e-05 6.59184329124e-05 0.233221624427)
    Angular velocity: (-0.000313614252868 0.000467685417424 -2.16797808801e-05)
Execution time for mesh.update() = 0.05 s
GAMGPCG:  Solving for pcorr, Initial residual = 1, Final residual = 3.22211067482e-06, No Iterations 6
time step continuity errors : sum local = 2.37789455715e-10, global = 2.01806048778e-10, cumulative = -0.000890841993984
smoothSolver:  Solving for alpha.water, Initial residual = 0.000324111305615, Final residual = 1.35827287384e-11, No Iterations 2
Phase-1 volume fraction = 0.548192773757  Min(alpha.water) = -6.57509071064e-31  Max(alpha.water) = 1.0000001269
Applying the previous iteration compression flux
MULES: Correcting alpha.water
MULES: Correcting alpha.water
MULES: Correcting alpha.water
Phase-1 volume fraction = 0.548192773757  Min(alpha.water) = -6.57509071064e-31  Max(alpha.water) = 1.00000010398
GAMGPCG:  Solving for p_rgh, Initial residual = 0.000124027105819, Final residual = 4.10444137426e-09, No Iterations 3
time step continuity errors : sum local = 8.05513072676e-08, global = 2.30256033297e-09, cumulative = -0.000890839691424
smoothSolver:  Solving for epsilon, Initial residual = 0.00558957497367, Final residual = 5.85599754035e-08, No Iterations 4
smoothSolver:  Solving for k, Initial residual = 0.173256409974, Final residual = 1.24682466055e-07, No Iterations 5
ExecutionTime = 2.23 s  ClockTime = 4 s

Courant Number mean: 0.0104605618565 max: 0.0879268387312
Interface Courant Number mean: 0.000963394763449 max: 0.0668328526556
deltaT = 0.0126984126984
Time = 0.0746032

PIMPLE: iteration 1

6-DoF rigid body motion
    Centre of rotation: (0.500002406559 0.500002257676 0.510787423055)
    Centre of mass: (0.500002406559 0.500002257676 0.510787423055)
    Orientation: (0.999999999589 6.85316106987e-07 2.86547851274e-05 -6.85977595357e-07 0.999999999733 2.30847402168e-05 -2.86547692994e-05 -2.30847598639e-05 0.999999999323)
    Linear velocity: (5.31597084136e-05 4.62704806742e-05 0.370555134378)
    Angular velocity: (-0.000620056964968 0.000792913932051 -1.6727191527e-05)
Execution time for mesh.update() = 0.02 s
GAMGPCG:  Solving for pcorr, Initial residual = 1, Final residual = 1.41846445386e-06, No Iterations 7
time step continuity errors : sum local = 2.32041901714e-10, global = 2.12447390283e-10, cumulative = -0.000890839478977
smoothSolver:  Solving for alpha.water, Initial residual = 0.0013270252982, Final residual = 1.86816767449e-10, No Iterations 2
Phase-1 volume fraction = 0.548192773941  Min(alpha.water) = -6.5432602494e-31  Max(alpha.water) = 1.00000010066
Applying the previous iteration compression flux
MULES: Correcting alpha.water
MULES: Correcting alpha.water
MULES: Correcting alpha.water
Phase-1 volume fraction = 0.548192773941  Min(alpha.water) = -6.5432602494e-31  Max(alpha.water) = 1.00000040967
GAMG:  Solving for p_rgh, Initial residual = 0.00111043529859, Final residual = 4.85034857057e-06, No Iterations 2
time step continuity errors : sum local = 9.62191183298e-05, global = 2.91666011233e-05, cumulative = -0.000861672877853
PIMPLE: iteration 2

6-DoF rigid body motion
    Centre of rotation: (0.500002486958 0.500002280083 0.509591418471)
    Centre of mass: (0.500002486958 0.500002280083 0.509591418471)
    Orientation: (0.999999999632 7.43530628475e-07 2.71290377948e-05 -7.44048998931e-07 0.999999999817 1.9107582119e-05 -2.71290235828e-05 -1.91076022973e-05 0.999999999449)
    Linear velocity: (6.58224806447e-05 4.97996777399e-05 0.182184412446)
    Angular velocity: (6.3451857096e-06 0.000552608573238 -2.58904961732e-05)
Execution time for mesh.update() = 0.03 s
GAMGPCG:  Solving for pcorr, Initial residual = 1, Final residual = 8.36359803233e-06, No Iterations 5
time step continuity errors : sum local = 2.31925591045e-09, global = -1.69900888742e-09, cumulative = -0.000861674576862
smoothSolver:  Solving for alpha.water, Initial residual = 0.000684487331549, Final residual = 2.09977550498e-11, No Iterations 2
Phase-1 volume fraction = 0.548192773756  Min(alpha.water) = -6.56942910168e-31  Max(alpha.water) = 1.00000010084
Applying the previous iteration compression flux
MULES: Correcting alpha.water
MULES: Correcting alpha.water
MULES: Correcting alpha.water
Phase-1 volume fraction = 0.548192773756  Min(alpha.water) = -6.56942910168e-31  Max(alpha.water) = 1.00000026148
GAMG:  Solving for p_rgh, Initial residual = 0.00036362300512, Final residual = 1.64645381208e-06, No Iterations 2
time step continuity errors : sum local = 3.18410435465e-05, global = 3.06451424856e-06, cumulative = -0.000858610062614
PIMPLE: iteration 3

6-DoF rigid body motion
    Centre of rotation: (0.500002459712 0.50000226186 0.51012908919)
    Centre of mass: (0.500002459712 0.50000226186 0.51012908919)
    Orientation: (0.999999999679 7.25577701706e-07 2.53172503201e-05 -7.26080587709e-07 0.999999999802 1.98633701193e-05 -2.53172359027e-05 -1.98633884953e-05 0.999999999482)
    Linear velocity: (6.15312863987e-05 4.69294511619e-05 0.26686755077)
    Angular velocity: (-0.000112691317247 0.000267252093826 -2.30570921377e-05)
Execution time for mesh.update() = 0.03 s
GAMGPCG:  Solving for pcorr, Initial residual = 1, Final residual = 3.49855739373e-06, No Iterations 6
time step continuity errors : sum local = 3.98176110671e-10, global = -3.44605730004e-10, cumulative = -0.000858610407219
smoothSolver:  Solving for alpha.water, Initial residual = 0.000213943536061, Final residual = 2.84970609357e-11, No Iterations 2
Phase-1 volume fraction = 0.548192773784  Min(alpha.water) = -6.53597950778e-31  Max(alpha.water) = 1.00000010064
Applying the previous iteration compression flux
MULES: Correcting alpha.water
MULES: Correcting alpha.water
MULES: Correcting alpha.water
Phase-1 volume fraction = 0.548192773784  Min(alpha.water) = -6.53597950778e-31  Max(alpha.water) = 1.00000027237
GAMGPCG:  Solving for p_rgh, Initial residual = 0.000160592714194, Final residual = 2.82586141906e-09, No Iterations 3
time step continuity errors : sum local = 5.50584835977e-08, global = -4.41759707603e-09, cumulative = -0.000858614824817
smoothSolver:  Solving for epsilon, Initial residual = 0.00666182396489, Final residual = 7.368158514e-08, No Iterations 4
smoothSolver:  Solving for k, Initial residual = 0.139211126353, Final residual = 1.1819333972e-07, No Iterations 5
ExecutionTime = 2.68 s  ClockTime = 4 s

Courant Number mean: 0.0129224586117 max: 0.107488012621
Interface Courant Number mean: 0.00119245239671 max: 0.082190044572
deltaT = 0.0126984126984
Time = 0.0873016

PIMPLE: iteration 1

6-DoF rigid body motion
    Centre of rotation: (0.500003254203 0.500002818045 0.513032867826)
    Centre of mass: (0.500003254203 0.500002818045 0.513032867826)
    Orientation: (0.999999999685 1.05321661031e-06 2.50812917448e-05 -1.05366484955e-06 0.99999999984 1.78714512071e-05 -2.50812729182e-05 -1.78714776288e-05 0.999999999526)
    Linear velocity: (6.36009811676e-05 4.06697124536e-05 0.190477584407)
    Angular velocity: (0.000426417156374 -0.00030441659509 -2.85458405306e-05)
Execution time for mesh.update() = 0.05 s
GAMGPCG:  Solving for pcorr, Initial residual = 1, Final residual = 8.84150808829e-06, No Iterations 6
time step continuity errors : sum local = 8.66766831101e-10, global = 7.92346206163e-10, cumulative = -0.00085861403247
smoothSolver:  Solving for alpha.water, Initial residual = 0.00100751743853, Final residual = 4.66346833848e-11, No Iterations 2
Phase-1 volume fraction = 0.54819277383  Min(alpha.water) = -6.36713182141e-31  Max(alpha.water) = 1.0000002857
Applying the previous iteration compression flux
MULES: Correcting alpha.water
MULES: Correcting alpha.water
MULES: Correcting alpha.water
Phase-1 volume fraction = 0.54819277383  Min(alpha.water) = -6.36713182141e-31  Max(alpha.water) = 1.00000029109
GAMG:  Solving for p_rgh, Initial residual = 0.00102030580725, Final residual = 5.11395119879e-06, No Iterations 2
time step continuity errors : sum local = 9.95718670579e-05, global = -1.01465191642e-05, cumulative = -0.000868760551635
PIMPLE: iteration 2

6-DoF rigid body motion
    Centre of rotation: (0.500003200029 0.500002229406 0.514262569518)
    Centre of mass: (0.500003200029 0.500002229406 0.514262569518)
    Orientation: (0.999999999597 1.05770912492e-06 2.83536146321e-05 -1.0580199081e-06 0.999999999939 1.09609595285e-05 -2.83536030368e-05 -1.09609895228e-05 0.999999999538)
    Linear velocity: (5.50685554767e-05 -5.20409022692e-05 0.38415560088)
    Angular velocity: (0.0015148195156 0.000210974376124 -2.92636989004e-05)
Execution time for mesh.update() = 0.05 s
GAMGPCG:  Solving for pcorr, Initial residual = 1, Final residual = 7.26559730401e-07, No Iterations 6
time step continuity errors : sum local = 2.06125232077e-10, global = -1.69992784684e-10, cumulative = -0.000868760721627
smoothSolver:  Solving for alpha.water, Initial residual = 0.000434149068716, Final residual = 1.46435685596e-10, No Iterations 2
Phase-1 volume fraction = 0.548192773929  Min(alpha.water) = -6.23394463243e-31  Max(alpha.water) = 1.00000028569
Applying the previous iteration compression flux
MULES: Correcting alpha.water
MULES: Correcting alpha.water
MULES: Correcting alpha.water
Phase-1 volume fraction = 0.548192773929  Min(alpha.water) = -6.23394463243e-31  Max(alpha.water) = 1.00000020068
GAMG:  Solving for p_rgh, Initial residual = 0.00043692245328, Final residual = 2.61747115762e-06, No Iterations 2
time step continuity errors : sum local = 5.24428891676e-05, global = 1.15045322836e-05, cumulative = -0.000857256189344
PIMPLE: iteration 3

6-DoF rigid body motion
    Centre of rotation: (0.5000031673 0.500002962343 0.513738880485)
    Centre of mass: (0.5000031673 0.500002962343 0.513738880485)
    Orientation: (0.99999999965 1.0185358566e-06 2.64413769452e-05 -1.01917606098e-06 0.999999999706 2.42122159226e-05 -2.64413522765e-05 -2.42122428626e-05 0.999999999357)
    Linear velocity: (4.99138561306e-05 6.33966895962e-05 0.301674578172)
    Angular velocity: (-0.000572253159324 -9.02031601661e-05 -2.30866834768e-05)
Execution time for mesh.update() = 0.03 s
GAMGPCG:  Solving for pcorr, Initial residual = 1, Final residual = 3.40281773156e-06, No Iterations 5
time step continuity errors : sum local = 4.46120882096e-10, global = 1.63902222407e-10, cumulative = -0.000857256025442
smoothSolver:  Solving for alpha.water, Initial residual = 0.000697157708223, Final residual = 9.76936370168e-11, No Iterations 2
Phase-1 volume fraction = 0.548192773817  Min(alpha.water) = -6.19836147934e-31  Max(alpha.water) = 1.00000028584
Applying the previous iteration compression flux
MULES: Correcting alpha.water
MULES: Correcting alpha.water
MULES: Correcting alpha.water
Phase-1 volume fraction = 0.548192773817  Min(alpha.water) = -6.19836147934e-31  Max(alpha.water) = 1.0000003268
GAMGPCG:  Solving for p_rgh, Initial residual = 0.000184250334042, Final residual = 3.11649664916e-09, No Iterations 3
time step continuity errors : sum local = 6.18647906453e-08, global = -8.26515459449e-09, cumulative = -0.000857264290596
smoothSolver:  Solving for epsilon, Initial residual = 0.00775662883773, Final residual = 8.30715134428e-08, No Iterations 4
smoothSolver:  Solving for k, Initial residual = 0.116914784828, Final residual = 1.05532756428e-07, No Iterations 5
ExecutionTime = 3.16 s  ClockTime = 5 s

Courant Number mean: 0.0141489448178 max: 0.113976850712
Interface Courant Number mean: 0.00130096143686 max: 0.0868358735538
deltaT = 0.0126984126984
Time = 0.1

PIMPLE: iteration 1

6-DoF rigid body motion
    Centre of rotation: (0.500003674676 0.500003899604 0.518487708808)
    Centre of mass: (0.500003674676 0.500003899604 0.518487708808)
    Orientation: (0.999999999642 1.26952698259e-06 2.67331090718e-05 -1.27053833453e-06 0.999999999284 3.78314546395e-05 -2.67330610245e-05 -3.78314885914e-05 0.999999998927)
    Linear velocity: (2.9997861287e-05 8.42219015072e-05 0.446265882691)
    Angular velocity: (-0.00157277796553 0.000136149752791 -1.64472396676e-05)
Execution time for mesh.update() = 0.05 s
GAMGPCG:  Solving for pcorr, Initial residual = 1, Final residual = 8.54986007765e-06, No Iterations 6
time step continuity errors : sum local = 1.50185315466e-09, global = -1.41967620263e-09, cumulative = -0.000857265710272
smoothSolver:  Solving for alpha.water, Initial residual = 0.00165063757399, Final residual = 5.80551028219e-10, No Iterations 2
Phase-1 volume fraction = 0.548192774388  Min(alpha.water) = 0  Max(alpha.water) = 1.00000031463
Applying the previous iteration compression flux
MULES: Correcting alpha.water
MULES: Correcting alpha.water
MULES: Correcting alpha.water
Phase-1 volume fraction = 0.548192774388  Min(alpha.water) = -1.13999881537e-09  Max(alpha.water) = 1.00000037948
GAMG:  Solving for p_rgh, Initial residual = 0.00157934456466, Final residual = 9.32701708141e-06, No Iterations 2
time step continuity errors : sum local = 0.000186176428027, global = 3.49395102957e-05, cumulative = -0.000822326199977
PIMPLE: iteration 2

6-DoF rigid body motion
    Centre of rotation: (0.50000368043 0.500003976172 0.517161616586)
    Centre of mass: (0.50000368043 0.500003976172 0.517161616586)
    Orientation: (0.999999999789 1.34259525103e-06 2.04770241311e-05 -1.34329189339e-06 0.99999999942 3.40207076382e-05 -2.04769784432e-05 -3.40207351377e-05 0.999999999212)
    Linear velocity: (3.09041152262e-05 9.62813283528e-05 0.23740635766)
    Angular velocity: (-0.000972585500776 -0.000849184003199 -2.79227911447e-05)
Execution time for mesh.update() = 0.05 s
GAMGPCG:  Solving for pcorr, Initial residual = 1, Final residual = 3.70020634911e-06, No Iterations 5
time step continuity errors : sum local = 1.42615642782e-09, global = 4.07924223941e-10, cumulative = -0.000822325792052
smoothSolver:  Solving for alpha.water, Initial residual = 0.00109931259615, Final residual = 1.0461965997e-10, No Iterations 2
Phase-1 volume fraction = 0.548192773837  Min(alpha.water) = -5.32966480643e-31  Max(alpha.water) = 1.0000003145
Applying the previous iteration compression flux
MULES: Correcting alpha.water
MULES: Correcting alpha.water
MULES: Correcting alpha.water
Phase-1 volume fraction = 0.548192773837  Min(alpha.water) = -5.32966480643e-31  Max(alpha.water) = 1.00000034443
GAMG:  Solving for p_rgh, Initial residual = 0.00047184285687, Final residual = 3.44211873736e-06, No Iterations 2
time step continuity errors : sum local = 6.70165728696e-05, global = 1.59433187608e-05, cumulative = -0.000806382473292
PIMPLE: iteration 3

6-DoF rigid body motion
    Centre of rotation: (0.500003611098 0.500003870388 0.517699954531)
    Centre of mass: (0.500003611098 0.500003870388 0.517699954531)
    Orientation: (0.999999999748 1.24997491864e-06 2.24245752799e-05 -1.25075100459e-06 0.9999999994 3.4608744192e-05 -2.24245320064e-05 -3.46087722308e-05 0.99999999915)
    Linear velocity: (1.99842714902e-05 7.96203532592e-05 0.322194584023)
    Angular velocity: (-0.00106520096237 -0.000542444180267 -1.33450014974e-05)
Execution time for mesh.update() = 0.03 s
GAMGPCG:  Solving for pcorr, Initial residual = 1, Final residual = 4.28695042037e-06, No Iterations 5
time step continuity errors : sum local = 6.35858470665e-10, global = 4.19794272237e-11, cumulative = -0.000806382431312
smoothSolver:  Solving for alpha.water, Initial residual = 0.000549929506438, Final residual = 1.57866740872e-10, No Iterations 2
Phase-1 volume fraction = 0.54819277393  Min(alpha.water) = 0  Max(alpha.water) = 1.00000031487
Applying the previous iteration compression flux
MULES: Correcting alpha.water
MULES: Correcting alpha.water
MULES: Correcting alpha.water
Phase-1 volume fraction = 0.54819277393  Min(alpha.water) = 0  Max(alpha.water) = 1.00000035054
GAMGPCG:  Solving for p_rgh, Initial residual = 0.000191031902358, Final residual = 7.26606681394e-09, No Iterations 3
time step continuity errors : sum local = 1.41818467636e-07, global = -2.21547529954e-09, cumulative = -0.000806384646787
smoothSolver:  Solving for epsilon, Initial residual = 0.00880512858727, Final residual = 9.77121358104e-08, No Iterations 4
smoothSolver:  Solving for k, Initial residual = 0.101260508406, Final residual = 1.0198708194e-07, No Iterations 5
ExecutionTime = 4.04 s  ClockTime = 5 s

Courant Number mean: 0.0158196875962 max: 0.127239795158
Interface Courant Number mean: 0.001475660198 max: 0.0973549635692
deltaT = 0.0142857142857
Time = 0.114286

PIMPLE: iteration 1

6-DoF rigid body motion
    Centre of rotation: (0.500003750145 0.500004934313 0.521480692028)
    Centre of mass: (0.500003750145 0.500004934313 0.521480692028)
    Orientation: (0.999999999953 1.39627846898e-06 9.57251117612e-06 -1.39670777905e-06 0.999999998993 4.48483579747e-05 -9.57244854569e-06 -4.48483713426e-05 0.999999998948)
    Linear velocity: (-5.17675373657e-07 6.93291176568e-05 0.207108665565)
    Angular velocity: (-0.000368345308529 -0.00125684568845 -7.057876734e-06)
Execution time for mesh.update() = 0.05 s
GAMGPCG:  Solving for pcorr, Initial residual = 1, Final residual = 4.59546814874e-06, No Iterations 6
time step continuity errors : sum local = 7.24947146658e-10, global = 6.4552226603e-10, cumulative = -0.000806384001265
smoothSolver:  Solving for alpha.water, Initial residual = 0.00131799626093, Final residual = 1.92957768121e-10, No Iterations 2
Phase-1 volume fraction = 0.548192774119  Min(alpha.water) = 0  Max(alpha.water) = 1.00000039598
Applying the previous iteration compression flux
MULES: Correcting alpha.water
MULES: Correcting alpha.water
MULES: Correcting alpha.water
Phase-1 volume fraction = 0.548192774119  Min(alpha.water) = -1.07736966547e-10  Max(alpha.water) = 1.00000096256
GAMG:  Solving for p_rgh, Initial residual = 0.00149047142031, Final residual = 6.76836984595e-06, No Iterations 2
time step continuity errors : sum local = 0.000163053391305, global = -1.42471339862e-05, cumulative = -0.000820631135251
PIMPLE: iteration 2

6-DoF rigid body motion
    Centre of rotation: (0.500003675612 0.500004936776 0.523190020154)
    Centre of mass: (0.500003675612 0.500004936776 0.523190020154)
    Orientation: (0.999999999908 1.32751084245e-06 1.34978816147e-05 -1.32819477722e-06 0.999999998715 5.06699032746e-05 -1.34978143325e-05 -5.06699211978e-05 0.999999998625)
    Linear velocity: (-1.09522663525e-05 6.96740376943e-05 0.44641460325)
    Angular velocity: (-0.00118336155377 -0.000707293315169 2.54405659227e-06)
Execution time for mesh.update() = 0.04 s
GAMGPCG:  Solving for pcorr, Initial residual = 1, Final residual = 4.02433601659e-06, No Iterations 5
time step continuity errors : sum local = 1.67314627338e-09, global = 1.1103333238e-09, cumulative = -0.000820630024918
smoothSolver:  Solving for alpha.water, Initial residual = 0.000827321361268, Final residual = 8.22023615853e-10, No Iterations 2
Phase-1 volume fraction = 0.54819277465  Min(alpha.water) = 0  Max(alpha.water) = 1.00000039502
Applying the previous iteration compression flux
MULES: Correcting alpha.water
MULES: Correcting alpha.water
MULES: Correcting alpha.water
Phase-1 volume fraction = 0.54819277465  Min(alpha.water) = 0  Max(alpha.water) = 1.00000087815
GAMG:  Solving for p_rgh, Initial residual = 0.000658728051987, Final residual = 4.19270781449e-06, No Iterations 2
time step continuity errors : sum local = 0.000104008625127, global = 2.59851533133e-05, cumulative = -0.000794644871605
PIMPLE: iteration 3

6-DoF rigid body motion
    Centre of rotation: (0.500003674491 0.500004926274 0.522437048396)
    Centre of mass: (0.500003674491 0.500004926274 0.522437048396)
    Orientation: (0.999999999934 1.40269083633e-06 1.1438054258e-05 -1.403240918e-06 0.999999998843 4.8092375467e-05 -1.1437986786e-05 -4.80923915141e-05 0.999999998778)
    Linear velocity: (-1.11092867496e-05 6.82036355137e-05 0.340998557145)
    Angular velocity: (-0.000822507772453 -0.000995669714668 -7.96723635174e-06)
Execution time for mesh.update() = 0.05 s
GAMGPCG:  Solving for pcorr, Initial residual = 1, Final residual = 9.43263398573e-06, No Iterations 5
time step continuity errors : sum local = 2.03888379551e-09, global = 1.81447052076e-09, cumulative = -0.000794643057134
smoothSolver:  Solving for alpha.water, Initial residual = 0.00135583280312, Final residual = 5.01310359185e-10, No Iterations 2
Phase-1 volume fraction = 0.548192774124  Min(alpha.water) = 0  Max(alpha.water) = 1.00000039613
Applying the previous iteration compression flux
MULES: Correcting alpha.water
MULES: Correcting alpha.water
MULES: Correcting alpha.water
Phase-1 volume fraction = 0.548192774124  Min(alpha.water) = 0  Max(alpha.water) = 1.00000102638
GAMGPCG:  Solving for p_rgh, Initial residual = 0.000311508011857, Final residual = 9.19990270921e-10, No Iterations 4
time step continuity errors : sum local = 2.25904109547e-08, global = 2.22428984661e-09, cumulative = -0.000794640832844
smoothSolver:  Solving for epsilon, Initial residual = 0.0109605309473, Final residual = 1.80960532862e-07, No Iterations 4
smoothSolver:  Solving for k, Initial residual = 0.100218508765, Final residual = 1.75566730856e-07, No Iterations 5
ExecutionTime = 4.54 s  ClockTime = 6 s

Courant Number mean: 0.0188971818718 max: 0.143921643492
Interface Courant Number mean: 0.00170448590949 max: 0.109932237975
deltaT = 0.0171428571429
Time = 0.131429

PIMPLE: iteration 1

6-DoF rigid body motion
    Centre of rotation: (0.500003283728 0.500006016992 0.529926812638)
    Centre of mass: (0.500003283728 0.500006016992 0.529926812638)
    Orientation: (0.999999999997 1.53371225637e-06 -1.75778222961e-06 -1.53359704214e-06 0.999999997851 6.55433516901e-05 1.75788275048e-06 -6.55433489942e-05 0.99999999785)
    Linear velocity: (-3.44796868114e-05 5.90468113293e-05 0.532807271005)
    Angular velocity: (-0.00121343944535 -0.00054384545658 -7.23764575894e-06)
Execution time for mesh.update() = 0.03 s
GAMGPCG:  Solving for pcorr, Initial residual = 1, Final residual = 2.43377413014e-06, No Iterations 6
time step continuity errors : sum local = 7.97214515326e-10, global = -7.68046220031e-10, cumulative = -0.000794641600891
smoothSolver:  Solving for alpha.water, Initial residual = 0.00261525524663, Final residual = 5.5125713777e-09, No Iterations 2
Phase-1 volume fraction = 0.548192779517  Min(alpha.water) = 0  Max(alpha.water) = 1.00000102387
Applying the previous iteration compression flux
MULES: Correcting alpha.water
MULES: Correcting alpha.water
MULES: Correcting alpha.water
Phase-1 volume fraction = 0.548192779517  Min(alpha.water) = -5.03347815557e-13  Max(alpha.water) = 1.00000099784
GAMG:  Solving for p_rgh, Initial residual = 0.00248094474874, Final residual = 1.53062139944e-05, No Iterations 2
time step continuity errors : sum local = 0.000523355139971, global = 6.68617383499e-05, cumulative = -0.000727779862541
PIMPLE: iteration 2

6-DoF rigid body motion
    Centre of rotation: (0.500003565144 0.500006046442 0.527376683806)
    Centre of mass: (0.500003565144 0.500006046442 0.527376683806)
    Orientation: (0.999999999961 1.62174244991e-06 -8.63402741558e-06 -1.62125992454e-06 0.999999998437 5.58861894461e-05 8.63411803509e-06 -5.5886175446e-05 0.999999998401)
    Linear velocity: (-1.6478286521e-06 6.24826958587e-05 0.235292240659)
    Angular velocity: (-8.67703510947e-05 -0.00134607464973 -1.74582902689e-05)
Execution time for mesh.update() = 0.05 s
GAMGPCG:  Solving for pcorr, Initial residual = 1, Final residual = 2.30595022962e-06, No Iterations 5
time step continuity errors : sum local = 2.11590470921e-09, global = -6.15982139693e-10, cumulative = -0.000727780478523
smoothSolver:  Solving for alpha.water, Initial residual = 0.00214078366427, Final residual = 6.51180412109e-10, No Iterations 2
Phase-1 volume fraction = 0.548192774186  Min(alpha.water) = 0  Max(alpha.water) = 1.00000102237
Applying the previous iteration compression flux
MULES: Correcting alpha.water
MULES: Correcting alpha.water
MULES: Correcting alpha.water
Phase-1 volume fraction = 0.548192774186  Min(alpha.water) = -9.39422349459e-12  Max(alpha.water) = 1.00000121727
GAMG:  Solving for p_rgh, Initial residual = 0.000838080729386, Final residual = 6.7749022288e-06, No Iterations 2
time step continuity errors : sum local = 0.000231761162054, global = 4.74993704206e-05, cumulative = -0.000680281108102
PIMPLE: iteration 3

6-DoF rigid body motion
    Centre of rotation: (0.500003414124 0.500005978725 0.52843359609)
    Centre of mass: (0.500003414124 0.500005978725 0.52843359609)
    Orientation: (0.999999999982 1.52336623778e-06 -5.75224556502e-06 -1.52302103823e-06 0.999999998198 6.00107955351e-05 5.75233697308e-06 -6.00107867732e-05 0.999999998183)
    Linear velocity: (-1.92667975032e-05 5.45824184162e-05 0.358598673754)
    Angular velocity: (-0.000567974555762 -0.00100986607668 -6.00088575643e-06)
Execution time for mesh.update() = 0.05 s
GAMGPCG:  Solving for pcorr, Initial residual = 1, Final residual = 3.01201816439e-06, No Iterations 5
time step continuity errors : sum local = 1.17778970993e-09, global = -6.24250790867e-10, cumulative = -0.000680281732353
smoothSolver:  Solving for alpha.water, Initial residual = 0.00127983536941, Final residual = 1.43906024974e-09, No Iterations 2
Phase-1 volume fraction = 0.548192775123  Min(alpha.water) = 0  Max(alpha.water) = 1.00000102421
Applying the previous iteration compression flux
MULES: Correcting alpha.water
MULES: Correcting alpha.water
MULES: Correcting alpha.water
Phase-1 volume fraction = 0.548192775123  Min(alpha.water) = -2.03661155281e-13  Max(alpha.water) = 1.00000116466
GAMGPCG:  Solving for p_rgh, Initial residual = 0.000367379825196, Final residual = 1.0275534085e-09, No Iterations 4
time step continuity errors : sum local = 3.43203571361e-08, global = -1.89932332415e-09, cumulative = -0.000680283631676
smoothSolver:  Solving for epsilon, Initial residual = 0.0145314731968, Final residual = 4.7449400489e-07, No Iterations 4
smoothSolver:  Solving for k, Initial residual = 0.105992482436, Final residual = 4.54296453352e-07, No Iterations 5
ExecutionTime = 5.01 s  ClockTime = 6 s

Courant Number mean: 0.0240297723248 max: 0.186302692834
Interface Courant Number mean: 0.00302915284392 max: 0.148951190369
deltaT = 0.0171428571429
Time = 0.148571

PIMPLE: iteration 1

6-DoF rigid body motion
    Centre of rotation: (0.500003195761 0.500006787205 0.53324760056)
    Centre of mass: (0.500003195761 0.500006787205 0.53324760056)
    Orientation: (0.999999999667 1.60741620294e-06 -2.57585110125e-05 -1.6057872725e-06 0.999999997999 6.32384287689e-05 2.57586126114e-05 -6.32383873851e-05 0.999999997669)
    Linear velocity: (-6.2088774427e-06 3.97401543138e-05 0.203035181057)
    Angular velocity: (0.000191417518915 -0.00132419886285 -3.65300416573e-06)
Execution time for mesh.update() = 0.03 s
GAMGPCG:  Solving for pcorr, Initial residual = 1, Final residual = 5.24166949929e-06, No Iterations 6
time step continuity errors : sum local = 1.31277736497e-09, global = 1.25582897188e-09, cumulative = -0.000680282375847
smoothSolver:  Solving for alpha.water, Initial residual = 0.00168458572843, Final residual = 6.8365769036e-10, No Iterations 2
Phase-1 volume fraction = 0.548192775791  Min(alpha.water) = -2.02660828679e-13  Max(alpha.water) = 1.00000067781
Applying the previous iteration compression flux
MULES: Correcting alpha.water
MULES: Correcting alpha.water
MULES: Correcting alpha.water
Phase-1 volume fraction = 0.548192775791  Min(alpha.water) = -1.94555653162e-10  Max(alpha.water) = 1.00000163408
GAMG:  Solving for p_rgh, Initial residual = 0.00206124568563, Final residual = 8.76107274047e-06, No Iterations 2
time step continuity errors : sum local = 0.000291580155076, global = -3.63874387595e-06, cumulative = -0.000683921119723
PIMPLE: iteration 2

6-DoF rigid body motion
    Centre of rotation: (0.500002976598 0.50000818787 0.535700961503)
    Centre of mass: (0.500002976598 0.50000818787 0.535700961503)
    Orientation: (0.999999999807 1.56660467461e-06 -1.95913252859e-05 -1.56437511331e-06 0.999999993523 0.000113802993209 1.95915034433e-05 -0.000113802962539 0.999999993333)
    Linear velocity: (-3.1777988141e-05 0.000203151146058 0.489260624491)
    Angular velocity: (-0.00570778182218 -0.000604693439566 1.05025511677e-06)
Execution time for mesh.update() = 0.05 s
GAMGPCG:  Solving for pcorr, Initial residual = 1, Final residual = 2.7222079598e-06, No Iterations 5
time step continuity errors : sum local = 1.76535201666e-09, global = 9.93328541415e-11, cumulative = -0.000683921020391
smoothSolver:  Solving for alpha.water, Initial residual = 0.0015718272566, Final residual = 3.57413481045e-09, No Iterations 2
Phase-1 volume fraction = 0.548192778  Min(alpha.water) = -2.02567146169e-13  Max(alpha.water) = 1.00000063598
Applying the previous iteration compression flux
MULES: Correcting alpha.water
MULES: Correcting alpha.water
MULES: Correcting alpha.water
Phase-1 volume fraction = 0.548192778  Min(alpha.water) = -1.95968590264e-10  Max(alpha.water) = 1.00000099784
GAMG:  Solving for p_rgh, Initial residual = 0.000935069799779, Final residual = 4.97301454847e-06, No Iterations 2
time step continuity errors : sum local = 0.000173224754848, global = 4.72966040509e-05, cumulative = -0.00063662441634
PIMPLE: iteration 3

6-DoF rigid body motion
    Centre of rotation: (0.500003060612 0.500007454105 0.534620471025)
    Centre of mass: (0.500003060612 0.500007454105 0.534620471025)
    Orientation: (0.999999999753 1.63782905615e-06 -2.21742758191e-05 -1.63601699266e-06 0.99999999666 8.17189448991e-05 2.21744095867e-05 -8.17189086014e-05 0.999999996415)
    Linear velocity: (-2.1976252184e-05 0.000117545217962 0.363203402057)
    Angular velocity: (-0.00196464261062 -0.000906038415754 -7.22993448687e-06)
Execution time for mesh.update() = 0.05 s
GAMGPCG:  Solving for pcorr, Initial residual = 1, Final residual = 1.84715730777e-06, No Iterations 5
time step continuity errors : sum local = 6.19611468858e-10, global = -1.68904672619e-10, cumulative = -0.000636624585244
smoothSolver:  Solving for alpha.water, Initial residual = 0.00209534178583, Final residual = 1.55280474166e-09, No Iterations 2
Phase-1 volume fraction = 0.548192775694  Min(alpha.water) = -2.02569031952e-13  Max(alpha.water) = 1.00000065233
Applying the previous iteration compression flux
MULES: Correcting alpha.water
MULES: Correcting alpha.water
MULES: Correcting alpha.water
Phase-1 volume fraction = 0.548192775694  Min(alpha.water) = -1.8828336918e-10  Max(alpha.water) = 1.00000158204
GAMGPCG:  Solving for p_rgh, Initial residual = 0.000448843311353, Final residual = 9.10203058668e-10, No Iterations 4
time step continuity errors : sum local = 3.12635852586e-08, global = 2.31692783211e-09, cumulative = -0.000636622268316
smoothSolver:  Solving for epsilon, Initial residual = 0.0161870662305, Final residual = 4.99024748475e-07, No Iterations 4
smoothSolver:  Solving for k, Initial residual = 0.0927371088098, Final residual = 3.90545806548e-07, No Iterations 5
ExecutionTime = 5.5 s  ClockTime = 7 s

Courant Number mean: 0.0258084596721 max: 0.184863814231
Interface Courant Number mean: 0.0034225906846 max: 0.144101950603
deltaT = 0.0171428571429
Time = 0.165714

PIMPLE: iteration 1

6-DoF rigid body motion
    Centre of rotation: (0.500002532626 0.500010172253 0.542276552453)
    Centre of mass: (0.500002532626 0.500010172253 0.542276552453)
    Orientation: (0.999999999453 1.79360616872e-06 -3.3012867287e-05 -1.78924115642e-06 0.999999991257 0.00013222109898 3.3013104151e-05 -0.000132221039839 0.999999990714)
    Linear velocity: (-3.9622169579e-05 0.000199572017064 0.530006097823)
    Angular velocity: (-0.00392727478392 -0.000358466072047 -1.08332609476e-05)
Execution time for mesh.update() = 0.05 s
GAMGPCG:  Solving for pcorr, Initial residual = 1, Final residual = 8.07319102652e-06, No Iterations 6
time step continuity errors : sum local = 2.60152866066e-09, global = -2.43703174759e-09, cumulative = -0.000636624705348
smoothSolver:  Solving for alpha.water, Initial residual = 0.0026773023074, Final residual = 6.46459843933e-09, No Iterations 2
Phase-1 volume fraction = 0.548192782009  Min(alpha.water) = -1.61423332561e-10  Max(alpha.water) = 1.00000157513
Applying the previous iteration compression flux
MULES: Correcting alpha.water
MULES: Correcting alpha.water
MULES: Correcting alpha.water
Phase-1 volume fraction = 0.548192782009  Min(alpha.water) = -8.89859210207e-11  Max(alpha.water) = 1.00000383414
GAMG:  Solving for p_rgh, Initial residual = 0.00286217114143, Final residual = 1.73595296219e-05, No Iterations 2
time step continuity errors : sum local = 0.000591693575753, global = 0.000113833901412, cumulative = -0.000522790803936
PIMPLE: iteration 2

6-DoF rigid body motion
    Centre of rotation: (0.500002910651 0.500010795905 0.539824636196)
    Centre of mass: (0.500002910651 0.500010795905 0.539824636196)
    Orientation: (0.999999999399 1.90811284003e-06 -3.46034782769e-05 -1.90252745542e-06 0.999999986972 0.000161410389016 3.46037858153e-05 -0.000161410323085 0.999999986375)
    Linear velocity: (4.48079765367e-06 0.00027233146716 0.243949201233)
    Angular velocity: (-0.00733269145072 -0.000544039730022 -2.4174680106e-05)
Execution time for mesh.update() = 0.05 s
GAMGPCG:  Solving for pcorr, Initial residual = 1, Final residual = 2.70798624475e-06, No Iterations 5
time step continuity errors : sum local = 2.6545801246e-09, global = -7.67547979896e-10, cumulative = -0.000522791571484
smoothSolver:  Solving for alpha.water, Initial residual = 0.00201333850503, Final residual = 4.75118560234e-10, No Iterations 2
Phase-1 volume fraction = 0.548192775633  Min(alpha.water) = -1.77909738926e-10  Max(alpha.water) = 1.00000157479
Applying the previous iteration compression flux
MULES: Correcting alpha.water
MULES: Correcting alpha.water
MULES: Correcting alpha.water
Phase-1 volume fraction = 0.548192775633  Min(alpha.water) = -1.13876497989e-11  Max(alpha.water) = 1.00000451559
GAMG:  Solving for p_rgh, Initial residual = 0.000900999813257, Final residual = 2.15756619213e-06, No Iterations 3
time step continuity errors : sum local = 7.34037732211e-05, global = 8.20007954135e-06, cumulative = -0.000514591491943
PIMPLE: iteration 3

6-DoF rigid body motion
    Centre of rotation: (0.500002744003 0.500010152051 0.540833006351)
    Centre of mass: (0.500002744003 0.500010152051 0.540833006351)
    Orientation: (0.999999999292 1.82011105789e-06 -3.75788671681e-05 -1.81547944222e-06 0.999999992403 0.000123250206182 3.75790912117e-05 -0.000123250137871 0.999999991699)
    Linear velocity: (-1.49615137692e-05 0.000197215098397 0.361592385918)
    Angular velocity: (-0.00288067045394 -0.000891166397598 -1.38594778324e-05)
Execution time for mesh.update() = 0.05 s
GAMGPCG:  Solving for pcorr, Initial residual = 1, Final residual = 6.95654518712e-06, No Iterations 5
time step continuity errors : sum local = 1.63743375046e-09, global = -4.55008330413e-10, cumulative = -0.000514591946951
smoothSolver:  Solving for alpha.water, Initial residual = 0.00156804564073, Final residual = 1.50783045299e-09, No Iterations 2
Phase-1 volume fraction = 0.548192776718  Min(alpha.water) = -1.59465395428e-10  Max(alpha.water) = 1.00000157617
Applying the previous iteration compression flux
MULES: Correcting alpha.water
MULES: Correcting alpha.water
MULES: Correcting alpha.water
Phase-1 volume fraction = 0.548192776718  Min(alpha.water) = -8.20105890355e-12  Max(alpha.water) = 1.00000428284
GAMGPCG:  Solving for p_rgh, Initial residual = 0.000404252760176, Final residual = 6.80037368263e-10, No Iterations 4
time step continuity errors : sum local = 2.26196242645e-08, global = -2.35873210953e-09, cumulative = -0.000514594305683
smoothSolver:  Solving for epsilon, Initial residual = 0.0179943136555, Final residual = 5.33879560511e-07, No Iterations 4
smoothSolver:  Solving for k, Initial residual = 0.0827234327177, Final residual = 3.49388066411e-07, No Iterations 5
ExecutionTime = 6.01 s  ClockTime = 7 s

Courant Number mean: 0.0255362677418 max: 0.183436797033
Interface Courant Number mean: 0.00364430593078 max: 0.146953177804
deltaT = 0.0171428571429
Time = 0.182857

PIMPLE: iteration 1

6-DoF rigid body motion
    Centre of rotation: (0.500002716519 0.500013489285 0.545601258579)
    Centre of mass: (0.500002716519 0.500013489285 0.545601258579)
    Orientation: (0.999999998427 2.09062367821e-06 -5.60585407632e-05 -2.08164322681e-06 0.999999987166 0.000160197317402 5.60588749561e-05 -0.000160197200456 0.999999985597)
    Linear velocity: (1.17550162852e-05 0.000192128876948 0.19470370735)
    Angular velocity: (-0.00142982428392 -0.00126480058256 -1.7374468697e-05)
Execution time for mesh.update() = 0.06 s
GAMGPCG:  Solving for pcorr, Initial residual = 1, Final residual = 8.0094472988e-06, No Iterations 6
time step continuity errors : sum local = 2.21940693997e-09, global = 2.11740084323e-09, cumulative = -0.000514592188282
smoothSolver:  Solving for alpha.water, Initial residual = 0.00167493221914, Final residual = 6.68522787086e-10, No Iterations 2
Phase-1 volume fraction = 0.548192777371  Min(alpha.water) = -8.8264335882e-14  Max(alpha.water) = 1.00000226759
Applying the previous iteration compression flux
MULES: Correcting alpha.water
MULES: Correcting alpha.water
MULES: Correcting alpha.water
Phase-1 volume fraction = 0.548192777371  Min(alpha.water) = -1.72755002774e-10  Max(alpha.water) = 1.00000480956
GAMG:  Solving for p_rgh, Initial residual = 0.00247529635373, Final residual = 1.05912108474e-05, No Iterations 2
time step continuity errors : sum local = 0.000350679102181, global = 1.82386948134e-05, cumulative = -0.000496353493469
PIMPLE: iteration 2

6-DoF rigid body motion
    Centre of rotation: (0.500002509213 0.500014098296 0.547888363524)
    Centre of mass: (0.500002509213 0.500014098296 0.547888363524)
    Orientation: (0.99999999891 1.99272793345e-06 -4.66576199289e-05 -1.9836250233e-06 0.999999980966 0.000195099415733 4.66580078208e-05 -0.00019509932297 0.99999997988)
    Linear velocity: (-1.24306892038e-05 0.000263180186082 0.461532617559)
    Angular velocity: (-0.00550173652071 -0.000168024543388 -6.1484379991e-06)
Execution time for mesh.update() = 0.03 s
GAMGPCG:  Solving for pcorr, Initial residual = 1, Final residual = 3.28512937659e-06, No Iterations 5
time step continuity errors : sum local = 2.22785422241e-09, global = -3.54103727481e-10, cumulative = -0.000496353847573
smoothSolver:  Solving for alpha.water, Initial residual = 0.00171904174893, Final residual = 2.66325990622e-09, No Iterations 2
Phase-1 volume fraction = 0.548192778793  Min(alpha.water) = -3.66263774022e-12  Max(alpha.water) = 1.00000220471
Applying the previous iteration compression flux
MULES: Correcting alpha.water
MULES: Correcting alpha.water
MULES: Correcting alpha.water
Phase-1 volume fraction = 0.548192778793  Min(alpha.water) = -1.53352844566e-10  Max(alpha.water) = 1.00000279732
GAMG:  Solving for p_rgh, Initial residual = 0.000995594517679, Final residual = 4.15708427412e-06, No Iterations 2
time step continuity errors : sum local = 0.000144623990076, global = 5.07615695198e-05, cumulative = -0.000445592278053
PIMPLE: iteration 3

6-DoF rigid body motion
    Centre of rotation: (0.500002648191 0.500013906505 0.546968635926)
    Centre of mass: (0.500002648191 0.500013906505 0.546968635926)
    Orientation: (0.999999998778 2.06718798314e-06 -4.93970787186e-05 -2.05842620534e-06 0.999999984267 0.000177373804771 4.93974446065e-05 -0.000177373702874 0.999999983049)
    Linear velocity: (3.78347448219e-06 0.000240804507589 0.35423106447)
    Angular velocity: (-0.00343374805895 -0.000487629689514 -1.47731028923e-05)
Execution time for mesh.update() = 0.04 s
GAMGPCG:  Solving for pcorr, Initial residual = 1, Final residual = 2.95003378175e-06, No Iterations 5
time step continuity errors : sum local = 8.41576855976e-10, global = -3.33685967524e-10, cumulative = -0.000445592611739
smoothSolver:  Solving for alpha.water, Initial residual = 0.00188908206352, Final residual = 8.77040924784e-10, No Iterations 2
Phase-1 volume fraction = 0.548192776962  Min(alpha.water) = -1.17923061171e-12  Max(alpha.water) = 1.00000222515
Applying the previous iteration compression flux
MULES: Correcting alpha.water
MULES: Correcting alpha.water
MULES: Correcting alpha.water
Phase-1 volume fraction = 0.548192776962  Min(alpha.water) = -1.43179740427e-10  Max(alpha.water) = 1.0000039592
GAMGPCG:  Solving for p_rgh, Initial residual = 0.000444603050851, Final residual = 9.59553866498e-10, No Iterations 4
time step continuity errors : sum local = 3.29524743066e-08, global = 6.18528857157e-09, cumulative = -0.00044558642645
smoothSolver:  Solving for epsilon, Initial residual = 0.0196677382473, Final residual = 5.36765215433e-07, No Iterations 4
smoothSolver:  Solving for k, Initial residual = 0.0743902522788, Final residual = 2.99592575855e-07, No Iterations 5
ExecutionTime = 6.49 s  ClockTime = 8 s

Courant Number mean: 0.0268011836077 max: 0.203879094137
Interface Courant Number mean: 0.00384990223461 max: 0.14320455137
deltaT = 0.0171428571429
Time = 0.2

PIMPLE: iteration 1

6-DoF rigid body motion
    Centre of rotation: (0.500002691777 0.500018443795 0.554259421334)
    Centre of mass: (0.500002691777 0.500018443795 0.554259421334)
    Orientation: (0.999999998758 2.29786997724e-06 -4.97881067189e-05 -2.28544323673e-06 0.99999996885 0.000249591169213 4.97886786961e-05 -0.000249591055115 0.999999967613)
    Linear velocity: (1.30157236141e-06 0.000288546020929 0.496360566564)
    Angular velocity: (-0.00499160988618 0.000442003711479 -1.2163929069e-05)
Execution time for mesh.update() = 0.03 s
GAMGPCG:  Solving for pcorr, Initial residual = 1, Final residual = 5.92518566209e-06, No Iterations 6
time step continuity errors : sum local = 1.80863026123e-09, global = -1.71015574644e-09, cumulative = -0.000445588136606
smoothSolver:  Solving for alpha.water, Initial residual = 0.00255153093295, Final residual = 4.84829618832e-09, No Iterations 2
Phase-1 volume fraction = 0.548192781703  Min(alpha.water) = -1.16795771773e-10  Max(alpha.water) = 1.00000394993
Applying the previous iteration compression flux
MULES: Correcting alpha.water
MULES: Correcting alpha.water
MULES: Correcting alpha.water
Phase-1 volume fraction = 0.548192781703  Min(alpha.water) = -1.35134629451e-10  Max(alpha.water) = 1.00000820631
GAMG:  Solving for p_rgh, Initial residual = 0.0031588478091, Final residual = 1.92133584134e-05, No Iterations 2
time step continuity errors : sum local = 0.000645784271987, global = 0.000115960634107, cumulative = -0.000329627502499
PIMPLE: iteration 2

6-DoF rigid body motion
    Centre of rotation: (0.500002926647 0.500018399226 0.551994145175)
    Centre of mass: (0.500002926647 0.500018399226 0.551994145175)
    Orientation: (0.999999998467 2.33556254085e-06 -5.53310045434e-05 -2.32101522803e-06 0.999999965436 0.000262912914168 5.53316166805e-05 -0.000262912785341 0.999999963908)
    Linear velocity: (2.87030560835e-05 0.000283346351858 0.23207834795)
    Angular velocity: (-0.00654581323368 -0.000204668978637 -1.64061935218e-05)
Execution time for mesh.update() = 0.03 s
GAMGPCG:  Solving for pcorr, Initial residual = 1, Final residual = 3.95718503926e-06, No Iterations 5
time step continuity errors : sum local = 4.00258705194e-09, global = -2.43686028812e-09, cumulative = -0.000329629939359
smoothSolver:  Solving for alpha.water, Initial residual = 0.00172070428595, Final residual = 3.77486919095e-10, No Iterations 2
Phase-1 volume fraction = 0.548192776748  Min(alpha.water) = -1.33897394887e-10  Max(alpha.water) = 1.00000395063
Applying the previous iteration compression flux
MULES: Correcting alpha.water
MULES: Correcting alpha.water
MULES: Correcting alpha.water
Phase-1 volume fraction = 0.548192776748  Min(alpha.water) = -7.25965962738e-12  Max(alpha.water) = 1.00000976927
GAMG:  Solving for p_rgh, Initial residual = 0.000869191797676, Final residual = 2.28907281901e-06, No Iterations 3
time step continuity errors : sum local = 7.66469962013e-05, global = -9.90312018394e-06, cumulative = -0.000339533059543
PIMPLE: iteration 3

6-DoF rigid body motion
    Centre of rotation: (0.500002812803 0.500018228593 0.552884449326)
    Centre of mass: (0.500002812803 0.500018228593 0.552884449326)
    Orientation: (0.999999998453 2.31138081301e-06 -5.5573532883e-05 -2.29807363224e-06 0.999999971329 0.000239450640648 5.55740847512e-05 -0.000239450512565 0.999999969787)
    Linear velocity: (1.54212239783e-05 0.000263439150008 0.335947165608)
    Angular velocity: (-0.00380854806178 -0.000232962993608 -1.35749428608e-05)
Execution time for mesh.update() = 0.03 s
GAMGPCG:  Solving for pcorr, Initial residual = 1, Final residual = 3.64861339418e-07, No Iterations 6
time step continuity errors : sum local = 8.07535696187e-11, global = 2.90279778071e-12, cumulative = -0.000339533056641
smoothSolver:  Solving for alpha.water, Initial residual = 0.0014811721339, Final residual = 8.0692025628e-10, No Iterations 2
Phase-1 volume fraction = 0.548192777477  Min(alpha.water) = -8.78262543378e-14  Max(alpha.water) = 1.00000395074
Applying the previous iteration compression flux
MULES: Correcting alpha.water
MULES: Correcting alpha.water
MULES: Correcting alpha.water
Phase-1 volume fraction = 0.548192777477  Min(alpha.water) = -6.05090708599e-14  Max(alpha.water) = 1.00000961275
GAMGPCG:  Solving for p_rgh, Initial residual = 0.00038934187023, Final residual = 5.18735259588e-10, No Iterations 4
time step continuity errors : sum local = 1.70109957528e-08, global = -4.65185785703e-09, cumulative = -0.000339537708498
smoothSolver:  Solving for epsilon, Initial residual = 0.0213979673382, Final residual = 5.22669632982e-07, No Iterations 4
smoothSolver:  Solving for k, Initial residual = 0.0675345507434, Final residual = 2.50335830288e-07, No Iterations 5
ExecutionTime = 7.34 s  ClockTime = 9 s

Courant Number mean: 0.0261283533562 max: 0.187894639041
Interface Courant Number mean: 0.00395189422849 max: 0.147134564783
deltaT = 0.02
Time = 0.22

PIMPLE: iteration 1

6-DoF rigid body motion
    Centre of rotation: (0.5000033152 0.500023017496 0.557532843752)
    Centre of mass: (0.5000033152 0.500023017496 0.557532843752)
    Orientation: (0.999999997779 2.59035792078e-06 -6.66051589224e-05 -2.57073724343e-06 0.999999956608 0.000294580344388 6.66059191008e-05 -0.000294580172509 0.999999954393)
    Linear velocity: (3.48184558018e-05 0.00021545112843 0.128892276974)
    Angular velocity: (-0.00170442082798 -0.000870207780536 -1.39990338383e-05)
Execution time for mesh.update() = 0.06 s
GAMGPCG:  Solving for pcorr, Initial residual = 1, Final residual = 7.04089062979e-06, No Iterations 6
time step continuity errors : sum local = 2.87864825718e-09, global = 2.71329010692e-09, cumulative = -0.000339534995208
smoothSolver:  Solving for alpha.water, Initial residual = 0.00165252212728, Final residual = 5.19400109135e-10, No Iterations 2
Phase-1 volume fraction = 0.548192777982  Min(alpha.water) = -6.01146820752e-14  Max(alpha.water) = 1.00000724608
Applying the previous iteration compression flux
MULES: Correcting alpha.water
MULES: Correcting alpha.water
MULES: Correcting alpha.water
Phase-1 volume fraction = 0.548192777982  Min(alpha.water) = -9.4923138591e-10  Max(alpha.water) = 1.0000127755
GAMG:  Solving for p_rgh, Initial residual = 0.0026081338157, Final residual = 9.96193452728e-06, No Iterations 2
time step continuity errors : sum local = 0.000427275332635, global = 3.86267230391e-05, cumulative = -0.000300908272169
PIMPLE: iteration 2

6-DoF rigid body motion
    Centre of rotation: (0.500003044079 0.500023563848 0.560359310975)
    Centre of mass: (0.500003044079 0.500023563848 0.560359310975)
    Orientation: (0.999999998312 2.51969632754e-06 -5.80531873204e-05 -2.50161579276e-06 0.999999951498 0.000311445721168 5.80539692534e-05 -0.000311445575415 0.999999949816)
    Linear velocity: (7.70642640699e-06 0.000270086395731 0.411538999311)
    Angular velocity: (-0.00339095906698 -1.5008434116e-05 -7.19563414691e-06)
Execution time for mesh.update() = 0.04 s
GAMGPCG:  Solving for pcorr, Initial residual = 1, Final residual = 2.77532333096e-06, No Iterations 5
time step continuity errors : sum local = 2.32010906897e-09, global = -2.77001323585e-10, cumulative = -0.000300908549171
smoothSolver:  Solving for alpha.water, Initial residual = 0.0018374094526, Final residual = 2.70206220643e-09, No Iterations 2
Phase-1 volume fraction = 0.548192779581  Min(alpha.water) = -6.02019681602e-14  Max(alpha.water) = 1.00000713021
Applying the previous iteration compression flux
MULES: Correcting alpha.water
MULES: Correcting alpha.water
MULES: Correcting alpha.water
Phase-1 volume fraction = 0.548192779581  Min(alpha.water) = -6.07419956004e-11  Max(alpha.water) = 1.00000761673
GAMG:  Solving for p_rgh, Initial residual = 0.00125253847743, Final residual = 4.81977267416e-06, No Iterations 2
time step continuity errors : sum local = 0.000216932938921, global = 7.94083832223e-05, cumulative = -0.000221500165948
PIMPLE: iteration 3

6-DoF rigid body motion
    Centre of rotation: (0.500003183919 0.500023431207 0.559299152065)
    Centre of mass: (0.500003183919 0.500023431207 0.559299152065)
    Orientation: (0.999999998256 2.56248819324e-06 -5.90033300682e-05 -2.54408052415e-06 0.999999951333 0.000311974744409 5.90041266282e-05 -0.000311974593755 0.999999949595)
    Linear velocity: (2.16904169748e-05 0.000256822235565 0.305523108245)
    Angular velocity: (-0.00344386113319 -0.000110024141695 -1.14450628292e-05)
Execution time for mesh.update() = 0.06 s
GAMGPCG:  Solving for pcorr, Initial residual = 1, Final residual = 3.60768957247e-06, No Iterations 5
time step continuity errors : sum local = 1.39416350618e-09, global = -4.51161965137e-10, cumulative = -0.00022150061711
smoothSolver:  Solving for alpha.water, Initial residual = 0.00181852671751, Final residual = 9.59245641828e-10, No Iterations 2
Phase-1 volume fraction = 0.548192777175  Min(alpha.water) = -6.0157868318e-14  Max(alpha.water) = 1.00000716218
Applying the previous iteration compression flux
MULES: Correcting alpha.water
MULES: Correcting alpha.water
MULES: Correcting alpha.water
Phase-1 volume fraction = 0.548192777175  Min(alpha.water) = -8.81476506739e-11  Max(alpha.water) = 1.0000100916
GAMGPCG:  Solving for p_rgh, Initial residual = 0.000505782617479, Final residual = 1.06566102516e-09, No Iterations 4
time step continuity errors : sum local = 4.74766390505e-08, global = 1.34806336488e-08, cumulative = -0.000221487136477
smoothSolver:  Solving for epsilon, Initial residual = 0.0264702888946, Final residual = 9.31937181442e-07, No Iterations 4
smoothSolver:  Solving for k, Initial residual = 0.0708635534098, Final residual = 4.44080338261e-07, No Iterations 5
ExecutionTime = 7.84 s  ClockTime = 9 s

Courant Number mean: 0.031062197009 max: 0.282332593325
Interface Courant Number mean: 0.004460004199 max: 0.179619650341
deltaT = 0.02
Time = 0.24

PIMPLE: iteration 1

6-DoF rigid body motion
    Centre of rotation: (0.500003516923 0.500028803312 0.566768988221)
    Centre of mass: (0.500003516923 0.500028803312 0.566768988221)
[...]
ExecutionTime = 275.48 s  ClockTime = 277 s

Courant Number mean: 0.0632992747005 max: 0.318017913068
Interface Courant Number mean: 0.00510050565879 max: 0.125885951494
deltaT = 0.02
Time = 9.94

PIMPLE: iteration 1

6-DoF rigid body motion
    Centre of rotation: (0.500685657341 0.500412055691 0.545019625645)
    Centre of mass: (0.500685657341 0.500412055691 0.545019625645)
    Orientation: (0.999999995241 2.74521752715e-05 -9.36148539467e-05 -2.74587399995e-05 0.999999997164 -7.01242896323e-05 9.3612928617e-05 7.01268598445e-05 0.999999993159)
    Linear velocity: (0.000268528603918 0.000158376102954 0.000812019890215)
    Angular velocity: (8.48828031276e-05 -0.000120742446492 -0.000100391091089)
Execution time for mesh.update() = 0.04 s
GAMGPCG:  Solving for pcorr, Initial residual = 1, Final residual = 9.62149019361e-06, No Iterations 4
time step continuity errors : sum local = 1.26450335497e-10, global = -5.7972663835e-11, cumulative = -0.00196527063588
smoothSolver:  Solving for alpha.water, Initial residual = 0.000218831345382, Final residual = 1.17902788973e-09, No Iterations 2
Phase-1 volume fraction = 0.548188595752  Min(alpha.water) = -7.11658442083e-15  Max(alpha.water) = 1.00000030815
Applying the previous iteration compression flux
MULES: Correcting alpha.water
MULES: Correcting alpha.water
MULES: Correcting alpha.water
Phase-1 volume fraction = 0.548188595753  Min(alpha.water) = -5.75565188965e-08  Max(alpha.water) = 1.00000029411
GAMG:  Solving for p_rgh, Initial residual = 1.6472663735e-05, Final residual = 8.34780440609e-08, No Iterations 1
time step continuity errors : sum local = 3.49822619041e-06, global = 3.75275568442e-07, cumulative = -0.00196489536031
PIMPLE: iteration 2

6-DoF rigid body motion
    Centre of rotation: (0.500685653525 0.500412052738 0.545019338822)
    Centre of mass: (0.500685653525 0.500412052738 0.545019338822)
    Orientation: (0.999999995239 2.74917526428e-05 -9.36308800816e-05 -2.74983281333e-05 0.999999997156 -7.0227233731e-05 9.36289491456e-05 7.02298080893e-05 0.999999993151)
    Linear velocity: (0.000268147010612 0.000158080740356 0.000783337593996)
    Angular velocity: (9.51775892252e-05 -0.000122344772366 -0.000104348938212)
Execution time for mesh.update() = 0.08 s
GAMGPCG:  Solving for pcorr, Initial residual = 1, Final residual = 5.65286780256e-07, No Iterations 5
time step continuity errors : sum local = 8.80969782855e-12, global = 1.00805298511e-12, cumulative = -0.0019648953593
smoothSolver:  Solving for alpha.water, Initial residual = 0.000220118148619, Final residual = 1.18547211651e-09, No Iterations 2
Phase-1 volume fraction = 0.548188595745  Min(alpha.water) = -7.11694521507e-15  Max(alpha.water) = 1.00000030813
Applying the previous iteration compression flux
MULES: Correcting alpha.water
MULES: Correcting alpha.water
MULES: Correcting alpha.water
Phase-1 volume fraction = 0.548188595746  Min(alpha.water) = -5.71754603828e-08  Max(alpha.water) = 1.0000002941
GAMG:  Solving for p_rgh, Initial residual = 2.24180145011e-06, Final residual = 7.24145720733e-09, No Iterations 2
time step continuity errors : sum local = 3.03453255138e-07, global = -2.24531673371e-08, cumulative = -0.00196491781247
PIMPLE: iteration 3

6-DoF rigid body motion
    Centre of rotation: (0.500685654538 0.500412056277 0.545019653259)
    Centre of mass: (0.500685654538 0.500412056277 0.545019653259)
    Orientation: (0.999999995239 2.75038827763e-05 -9.3621876503e-05 -2.75104486107e-05 0.999999997162 -7.01308469834e-05 9.36199473667e-05 7.01334222294e-05 0.999999993158)
    Linear velocity: (0.000268248265495 0.00015843462982 0.000814781306058)
    Angular velocity: (8.55390288102e-05 -0.000121444334347 -0.000105561890799)
Execution time for mesh.update() = 0.05 s
GAMGPCG:  Solving for pcorr, Initial residual = 1, Final residual = 4.53806444279e-06, No Iterations 4
time step continuity errors : sum local = 5.64990583884e-11, global = 3.27771003792e-11, cumulative = -0.00196491777969
smoothSolver:  Solving for alpha.water, Initial residual = 0.000219882495159, Final residual = 1.18812934434e-09, No Iterations 2
Phase-1 volume fraction = 0.548188595743  Min(alpha.water) = -7.11689994598e-15  Max(alpha.water) = 1.00000030813
Applying the previous iteration compression flux
MULES: Correcting alpha.water
MULES: Correcting alpha.water
MULES: Correcting alpha.water
Phase-1 volume fraction = 0.548188595744  Min(alpha.water) = -5.75844862796e-08  Max(alpha.water) = 1.0000002941
GAMGPCG:  Solving for p_rgh, Initial residual = 2.98516990506e-07, Final residual = 3.02665035874e-09, No Iterations 1
time step continuity errors : sum local = 1.2683185166e-07, global = -3.24266385014e-08, cumulative = -0.00196495020633
smoothSolver:  Solving for epsilon, Initial residual = 0.00020087658211, Final residual = 9.42694708913e-08, No Iterations 3
smoothSolver:  Solving for k, Initial residual = 0.000165755712738, Final residual = 8.97696575267e-07, No Iterations 2
ExecutionTime = 275.95 s  ClockTime = 278 s

Courant Number mean: 0.0633344810362 max: 0.318384319873
Interface Courant Number mean: 0.00510365491038 max: 0.126077193922
deltaT = 0.02
Time = 9.96

PIMPLE: iteration 1

6-DoF rigid body motion
    Centre of rotation: (0.500691061408 0.500415256595 0.545033816336)
    Centre of mass: (0.500691061408 0.500415256595 0.545033816336)
    Orientation: (0.999999994998 2.96800596039e-05 -9.55109630742e-05 -2.96868716229e-05 0.999999997016 -7.13212264598e-05 9.5508845971e-05 7.13240615248e-05 0.999999992895)
    Linear velocity: (0.000272438719887 0.000161597237799 0.000601526354449)
    Angular velocity: (3.35196884853e-05 -6.74487937197e-05 -0.00011206916975)
Execution time for mesh.update() = 0.03 s
GAMGPCG:  Solving for pcorr, Initial residual = 1, Final residual = 4.69460117964e-07, No Iterations 5
time step continuity errors : sum local = 6.11438499731e-12, global = 2.50344451771e-13, cumulative = -0.00196495020608
smoothSolver:  Solving for alpha.water, Initial residual = 0.000219500209189, Final residual = 1.18773559601e-09, No Iterations 2
Phase-1 volume fraction = 0.548188594615  Min(alpha.water) = -7.06742374751e-15  Max(alpha.water) = 1.00000029337
Applying the previous iteration compression flux
MULES: Correcting alpha.water
MULES: Correcting alpha.water
MULES: Correcting alpha.water
Phase-1 volume fraction = 0.548188594616  Min(alpha.water) = -5.76211292937e-08  Max(alpha.water) = 1.00000028542
GAMG:  Solving for p_rgh, Initial residual = 1.34842044892e-05, Final residual = 8.06145773203e-08, No Iterations 1
time step continuity errors : sum local = 3.37822132083e-06, global = 2.43361308151e-07, cumulative = -0.00196470684477
PIMPLE: iteration 2

6-DoF rigid body motion
    Centre of rotation: (0.500691060684 0.500415250637 0.545033579503)
    Centre of mass: (0.500691060684 0.500415250637 0.545033579503)
    Orientation: (0.999999995007 2.964028958e-05 -9.543799547e-05 -2.96471018773e-05 0.999999997013 -7.13786760387e-05 9.54358795003e-05 7.13815051423e-05 0.999999992898)
    Linear velocity: (0.000272366315629 0.000161001376164 0.000577843072474)
    Angular velocity: (3.92642584268e-05 -6.01523156216e-05 -0.000108091643276)
Execution time for mesh.update() = 0.04 s
GAMGPCG:  Solving for pcorr, Initial residual = 1, Final residual = 5.94966226972e-06, No Iterations 4
time step continuity errors : sum local = 9.19964440378e-11, global = 1.79189514331e-11, cumulative = -0.00196470682685
smoothSolver:  Solving for alpha.water, Initial residual = 0.000220509313591, Final residual = 1.19322693301e-09, No Iterations 2
Phase-1 volume fraction = 0.548188594609  Min(alpha.water) = -7.06781608481e-15  Max(alpha.water) = 1.00000029338
Applying the previous iteration compression flux
MULES: Correcting alpha.water
MULES: Correcting alpha.water
MULES: Correcting alpha.water
Phase-1 volume fraction = 0.54818859461  Min(alpha.water) = -5.7438598355e-08  Max(alpha.water) = 1.00000028549
GAMG:  Solving for p_rgh, Initial residual = 2.41061253773e-06, Final residual = 6.11747191681e-09, No Iterations 2
time step continuity errors : sum local = 2.56354037112e-07, global = -5.26175418264e-08, cumulative = -0.0019647594444
PIMPLE: iteration 3

6-DoF rigid body motion
    Centre of rotation: (0.500691060178 0.500415252774 0.545033853696)
    Centre of mass: (0.500691060178 0.500415252774 0.545033853696)
    Orientation: (0.999999995007 2.96361238365e-05 -9.54314056029e-05 -2.96429269372e-05 0.99999999702 -7.12872352743e-05 9.54292926412e-05 7.12900637846e-05 0.999999992905)
    Linear velocity: (0.00027231577381 0.000161215133563 0.00060526234002)
    Angular velocity: (3.01201413763e-05 -5.94933648487e-05 -0.000107675024565)
Execution time for mesh.update() = 0.03 s
GAMGPCG:  Solving for pcorr, Initial residual = 1, Final residual = 3.91900898154e-06, No Iterations 4
time step continuity errors : sum local = 4.85964498456e-11, global = 2.10174836523e-11, cumulative = -0.00196475942338
smoothSolver:  Solving for alpha.water, Initial residual = 0.00022022366871, Final residual = 1.19485426086e-09, No Iterations 2
Phase-1 volume fraction = 0.548188594608  Min(alpha.water) = -7.06778402229e-15  Max(alpha.water) = 1.00000029337
Applying the previous iteration compression flux
MULES: Correcting alpha.water
MULES: Correcting alpha.water
MULES: Correcting alpha.water
Phase-1 volume fraction = 0.548188594609  Min(alpha.water) = -5.77032499154e-08  Max(alpha.water) = 1.00000028548
GAMGPCG:  Solving for p_rgh, Initial residual = 2.87602254136e-07, Final residual = 2.55495730628e-09, No Iterations 1
time step continuity errors : sum local = 1.07066096098e-07, global = -2.09151192526e-08, cumulative = -0.0019647803385
smoothSolver:  Solving for epsilon, Initial residual = 0.000210396123834, Final residual = 9.9989695255e-08, No Iterations 3
smoothSolver:  Solving for k, Initial residual = 0.000169758357152, Final residual = 9.51559483875e-07, No Iterations 2
ExecutionTime = 276.35 s  ClockTime = 278 s

Courant Number mean: 0.0633693085418 max: 0.318716906001
Interface Courant Number mean: 0.00510680906018 max: 0.126227628965
deltaT = 0.02
Time = 9.98

PIMPLE: iteration 1

6-DoF rigid body motion
    Centre of rotation: (0.500696545794 0.50041850198 0.545043681744)
    Centre of mass: (0.500696545794 0.50041850198 0.545043681744)
    Orientation: (0.999999994894 3.17678942792e-05 -9.59266293386e-05 -3.17747325278e-05 0.999999996954 -7.12855561278e-05 9.59243644545e-05 7.12886038069e-05 0.999999992858)
    Linear velocity: (0.000276245835127 0.000163705416053 0.000377542460411)
    Angular velocity: (-3.02675539283e-05 9.98625206065e-06 -0.00010550556468)
Execution time for mesh.update() = 0.08 s
GAMGPCG:  Solving for pcorr, Initial residual = 1, Final residual = 1.40006277153e-06, No Iterations 5
time step continuity errors : sum local = 1.80538713973e-11, global = 1.01443993046e-11, cumulative = -0.00196478032835
smoothSolver:  Solving for alpha.water, Initial residual = 0.00022019990366, Final residual = 1.19593196e-09, No Iterations 2
Phase-1 volume fraction = 0.548188593473  Min(alpha.water) = -7.01922644861e-15  Max(alpha.water) = 1.0000002823
Applying the previous iteration compression flux
MULES: Correcting alpha.water
MULES: Correcting alpha.water
MULES: Correcting alpha.water
Phase-1 volume fraction = 0.548188593474  Min(alpha.water) = -5.86212073934e-08  Max(alpha.water) = 1.00000027542
GAMG:  Solving for p_rgh, Initial residual = 1.03603689483e-05, Final residual = 7.79410764259e-08, No Iterations 1
time step continuity errors : sum local = 3.26620378228e-06, global = 1.10915523278e-07, cumulative = -0.00196466941283
PIMPLE: iteration 2

6-DoF rigid body motion
    Centre of rotation: (0.50069654677 0.500418500567 0.545043520685)
    Centre of mass: (0.50069654677 0.500418500567 0.545043520685)
    Orientation: (0.999999994889 3.18049846352e-05 -9.59665252333e-05 -3.18118368925e-05 0.999999996945 -7.14018964114e-05 9.59642540039e-05 7.1404948918e-05 0.999999992846)
    Linear velocity: (0.000276343422735 0.000163564121641 0.000361436548339)
    Angular velocity: (-1.86331651975e-05 5.99693576272e-06 -0.000109214882078)
Execution time for mesh.update() = 0.04 s
GAMGPCG:  Solving for pcorr, Initial residual = 1, Final residual = 7.83015949097e-06, No Iterations 4
time step continuity errors : sum local = 1.20174075062e-10, global = 7.77837711464e-11, cumulative = -0.00196466933505
smoothSolver:  Solving for alpha.water, Initial residual = 0.00022089551603, Final residual = 1.20043374273e-09, No Iterations 2
Phase-1 volume fraction = 0.548188593468  Min(alpha.water) = -7.01964119651e-15  Max(alpha.water) = 1.0000002823
Applying the previous iteration compression flux
MULES: Correcting alpha.water
MULES: Correcting alpha.water
MULES: Correcting alpha.water
Phase-1 volume fraction = 0.548188593469  Min(alpha.water) = -5.84703521503e-08  Max(alpha.water) = 1.00000027559
GAMG:  Solving for p_rgh, Initial residual = 2.47722962875e-06, Final residual = 4.93044532187e-09, No Iterations 2
time step continuity errors : sum local = 2.06614278261e-07, global = -8.3629525271e-08, cumulative = -0.00196475296457
PIMPLE: iteration 3

6-DoF rigid body motion
    Centre of rotation: (0.500696546772 0.500418503437 0.545043740932)
    Centre of mass: (0.500696546772 0.500418503437 0.545043740932)
    Orientation: (0.99999999489 3.18149965774e-05 -9.59564950419e-05 -3.18218400506e-05 0.999999996951 -7.13178156837e-05 9.59542257733e-05 7.13208688315e-05 0.999999992853)
    Linear velocity: (0.000276343555985 0.000163851145142 0.000383461233838)
    Angular velocity: (-2.70411421388e-05 7.00002106308e-06 -0.000110216007227)
Execution time for mesh.update() = 0.08 s
GAMGPCG:  Solving for pcorr, Initial residual = 1, Final residual = 5.68747367962e-06, No Iterations 4
time step continuity errors : sum local = 7.02166927828e-11, global = 2.91898846565e-11, cumulative = -0.00196475293538
smoothSolver:  Solving for alpha.water, Initial residual = 0.000220579655422, Final residual = 1.20111208431e-09, No Iterations 2
Phase-1 volume fraction = 0.548188593467  Min(alpha.water) = -7.0196231846e-15  Max(alpha.water) = 1.00000028229
Applying the previous iteration compression flux
MULES: Correcting alpha.water
MULES: Correcting alpha.water
MULES: Correcting alpha.water
Phase-1 volume fraction = 0.548188593468  Min(alpha.water) = -5.86535033015e-08  Max(alpha.water) = 1.00000027563
GAMGPCG:  Solving for p_rgh, Initial residual = 2.7346065301e-07, Final residual = 2.43952794015e-09, No Iterations 1
time step continuity errors : sum local = 1.02230335411e-07, global = -1.87690559833e-08, cumulative = -0.00196477170444
smoothSolver:  Solving for epsilon, Initial residual = 0.000218435170399, Final residual = 1.04835817421e-07, No Iterations 3
smoothSolver:  Solving for k, Initial residual = 0.000172846314232, Final residual = 9.96202279934e-07, No Iterations 2
ExecutionTime = 276.86 s  ClockTime = 279 s

Courant Number mean: 0.0634029478677 max: 0.319009474301
Interface Courant Number mean: 0.00510954902258 max: 0.126335122801
deltaT = 0.02
Time = 10

PIMPLE: iteration 1

6-DoF rigid body motion
    Centre of rotation: (0.500702114842 0.500421809185 0.54504905391)
    Centre of mass: (0.500702114842 0.500421809185 0.54504905391)
    Orientation: (0.999999994889 3.40926306892e-05 -9.51848477006e-05 -3.40993151441e-05 0.999999996953 -7.02253007144e-05 9.51824532453e-05 7.02285460936e-05 0.999999993004)
    Linear velocity: (0.000280463498371 0.00016672359807 0.000147836622629)
    Angular velocity: (-8.21885721786e-05 7.01808165581e-05 -0.000117541955426)
Execution time for mesh.update() = 0.08 s
GAMGPCG:  Solving for pcorr, Initial residual = 1, Final residual = 2.46046122523e-06, No Iterations 5
time step continuity errors : sum local = 3.14236468111e-11, global = 1.77610669307e-11, cumulative = -0.00196477168668
smoothSolver:  Solving for alpha.water, Initial residual = 0.000220977131456, Final residual = 1.20373649728e-09, No Iterations 2
Phase-1 volume fraction = 0.548188592325  Min(alpha.water) = -6.97205034575e-15  Max(alpha.water) = 1.00000027718
Applying the previous iteration compression flux
MULES: Correcting alpha.water
MULES: Correcting alpha.water
MULES: Correcting alpha.water
Phase-1 volume fraction = 0.548188592327  Min(alpha.water) = -5.860976026e-08  Max(alpha.water) = 1.00000027399
GAMG:  Solving for p_rgh, Initial residual = 7.74662594483e-06, Final residual = 7.65727759488e-08, No Iterations 1
time step continuity errors : sum local = 3.20890500011e-06, global = -4.88258462299e-08, cumulative = -0.00196482051252
PIMPLE: iteration 2

6-DoF rigid body motion
    Centre of rotation: (0.500702113437 0.500421803024 0.545048947293)
    Centre of mass: (0.500702113437 0.500421803024 0.545048947293)
    Orientation: (0.999999994893 3.40614144919e-05 -9.51482670821e-05 -3.40681025164e-05 0.999999996949 -7.02898188367e-05 9.51458726212e-05 7.02930599986e-05 0.999999993003)
    Linear velocity: (0.000280322984484 0.00016610757464 0.000137174863978)
    Angular velocity: (-7.57370598714e-05 7.38386638394e-05 -0.000114420075636)
Execution time for mesh.update() = 0.04 s
GAMGPCG:  Solving for pcorr, Initial residual = 1, Final residual = 1.03244182098e-06, No Iterations 5
time step continuity errors : sum local = 1.57863841285e-11, global = -9.84097222179e-12, cumulative = -0.00196482052236
smoothSolver:  Solving for alpha.water, Initial residual = 0.000221293477816, Final residual = 1.20706428552e-09, No Iterations 2
Phase-1 volume fraction = 0.548188592322  Min(alpha.water) = -6.9724758968e-15  Max(alpha.water) = 1.00000027718
Applying the previous iteration compression flux
MULES: Correcting alpha.water
MULES: Correcting alpha.water
MULES: Correcting alpha.water
Phase-1 volume fraction = 0.548188592323  Min(alpha.water) = -5.86057104393e-08  Max(alpha.water) = 1.00000027408
GAMG:  Solving for p_rgh, Initial residual = 2.53560289467e-06, Final residual = 2.16451829786e-08, No Iterations 1
time step continuity errors : sum local = 9.07078684047e-07, global = -1.88005149169e-07, cumulative = -0.00196500852751
PIMPLE: iteration 3

6-DoF rigid body motion
    Centre of rotation: (0.500702111641 0.500421805394 0.545049108689)
    Centre of mass: (0.500702111641 0.500421805394 0.545049108689)
    Orientation: (0.999999994896 3.40584412061e-05 -9.512131889e-05 -3.40651184438e-05 0.999999996956 -7.01963305105e-05 9.51189278228e-05 7.01995704713e-05 0.999999993012)
    Linear velocity: (0.000280143359926 0.000166344535789 0.000153314455668)
    Angular velocity: (-8.50859227495e-05 7.65334557068e-05 -0.000114122560225)
Execution time for mesh.update() = 0.09 s
GAMGPCG:  Solving for pcorr, Initial residual = 1, Final residual = 9.83422026864e-06, No Iterations 4
time step continuity errors : sum local = 1.28037810989e-10, global = 3.67692155059e-11, cumulative = -0.00196500849074
smoothSolver:  Solving for alpha.water, Initial residual = 0.000220944677414, Final residual = 1.20669677735e-09, No Iterations 2
Phase-1 volume fraction = 0.548188592322  Min(alpha.water) = -6.97247279325e-15  Max(alpha.water) = 1.00000027719
Applying the previous iteration compression flux
MULES: Correcting alpha.water
MULES: Correcting alpha.water
MULES: Correcting alpha.water
Phase-1 volume fraction = 0.548188592323  Min(alpha.water) = -5.86811060667e-08  Max(alpha.water) = 1.00000027412
GAMGPCG:  Solving for p_rgh, Initial residual = 2.71702784852e-07, Final residual = 3.79568932725e-09, No Iterations 1
time step continuity errors : sum local = 1.59065018733e-07, global = -4.16794528423e-08, cumulative = -0.0019650501702
smoothSolver:  Solving for epsilon, Initial residual = 0.000224803968695, Final residual = 1.08720477837e-07, No Iterations 3
smoothSolver:  Solving for k, Initial residual = 0.000174987790431, Final residual = 9.72994212093e-08, No Iterations 3
ExecutionTime = 277.78 s  ClockTime = 280 s

End

