/*---------------------------------------------------------------------------*\
| =========                 |                                                 |
| \\      /  F ield         | OpenFOAM: The Open Source CFD Toolbox           |
|  \\    /   O peration     | Version:  3.0.1                                 |
|   \\  /    A nd           | Web:      www.OpenFOAM.org                      |
|    \\/     M anipulation  |                                                 |
\*---------------------------------------------------------------------------*/
Build  : 3.0.1-d8a290b55d28
Exec   : interDyMFoam
Date   : May 30 2016
Time   : 16:00:21
Host   : "evankielley-VirtualBox"
PID    : 6985
Case   : /home/evankielley/OpenFOAM/evankielley-3.0.1/run/case203
nProcs : 1
sigFpe : Enabling floating point exception trapping (FOAM_SIGFPE).
fileModificationChecking : Monitoring run-time modified files using timeStampMaster
allowSystemOperations : Allowing user-supplied system call operations

// * * * * * * * * * * * * * * * * * * * * * * * * * * * * * * * * * * * * * //
Create time

Create mesh for time = 0

Using #calcEntry at line 40 in file "/home/evankielley/OpenFOAM/evankielley-3.0.1/run/case203/constant/dynamicMeshDict.sixDoFRigidBodyMotionCoeffs"
Using #codeStream with "/home/evankielley/OpenFOAM/evankielley-3.0.1/run/case203/dynamicCode/platforms/linux64GccDPInt64Opt/lib/libcodeStream_a0640cbac1206dd19ab725737df7229c42819b1b.so"
Creating new library in "dynamicCode/_a0640cbac1206dd19ab725737df7229c42819b1b/platforms/linux64GccDPInt64Opt/lib/libcodeStream_a0640cbac1206dd19ab725737df7229c42819b1b.so"
Invoking "wmake -s libso /home/evankielley/OpenFOAM/evankielley-3.0.1/run/case203/dynamicCode/_a0640cbac1206dd19ab725737df7229c42819b1b"
wmakeLnInclude: linking include files to ./lnInclude
Making dependency list for source file codeStreamTemplate.C
'/home/evankielley/OpenFOAM/evankielley-3.0.1/run/case203/dynamicCode/_a0640cbac1206dd19ab725737df7229c42819b1b/../platforms/linux64GccDPInt64Opt/lib/libcodeStream_a0640cbac1206dd19ab725737df7229c42819b1b.so' is up to date.
Using #codeStream at line 43 in file "/home/evankielley/OpenFOAM/evankielley-3.0.1/run/case203/constant/dynamicMeshDict.sixDoFRigidBodyMotionCoeffs"
Using #codeStream with "/home/evankielley/OpenFOAM/evankielley-3.0.1/run/case203/dynamicCode/platforms/linux64GccDPInt64Opt/lib/libcodeStream_cf371c8fdd012c5da10c80ca370db81476b8f387.so"
Creating new library in "dynamicCode/_cf371c8fdd012c5da10c80ca370db81476b8f387/platforms/linux64GccDPInt64Opt/lib/libcodeStream_cf371c8fdd012c5da10c80ca370db81476b8f387.so"
Invoking "wmake -s libso /home/evankielley/OpenFOAM/evankielley-3.0.1/run/case203/dynamicCode/_cf371c8fdd012c5da10c80ca370db81476b8f387"
wmakeLnInclude: linking include files to ./lnInclude
Making dependency list for source file codeStreamTemplate.C
'/home/evankielley/OpenFOAM/evankielley-3.0.1/run/case203/dynamicCode/_cf371c8fdd012c5da10c80ca370db81476b8f387/../platforms/linux64GccDPInt64Opt/lib/libcodeStream_cf371c8fdd012c5da10c80ca370db81476b8f387.so' is up to date.
Selecting dynamicFvMesh dynamicMotionSolverFvMesh
Using #calcEntry at line 40 in file "/home/evankielley/OpenFOAM/evankielley-3.0.1/run/case203/constant/dynamicMeshDict.sixDoFRigidBodyMotionCoeffs"
Using #codeStream with "/home/evankielley/OpenFOAM/evankielley-3.0.1/run/case203/dynamicCode/platforms/linux64GccDPInt64Opt/lib/libcodeStream_a0640cbac1206dd19ab725737df7229c42819b1b.so"
Using #codeStream at line 43 in file "/home/evankielley/OpenFOAM/evankielley-3.0.1/run/case203/constant/dynamicMeshDict.sixDoFRigidBodyMotionCoeffs"
Using #codeStream with "/home/evankielley/OpenFOAM/evankielley-3.0.1/run/case203/dynamicCode/platforms/linux64GccDPInt64Opt/lib/libcodeStream_cf371c8fdd012c5da10c80ca370db81476b8f387.so"
Selecting motion solver: sixDoFRigidBodyMotion
Using #calcEntry at line 40 in file "/home/evankielley/OpenFOAM/evankielley-3.0.1/run/case203/constant/dynamicMeshDict.sixDoFRigidBodyMotionCoeffs"
Using #codeStream with "/home/evankielley/OpenFOAM/evankielley-3.0.1/run/case203/dynamicCode/platforms/linux64GccDPInt64Opt/lib/libcodeStream_a0640cbac1206dd19ab725737df7229c42819b1b.so"
Using #codeStream at line 43 in file "/home/evankielley/OpenFOAM/evankielley-3.0.1/run/case203/constant/dynamicMeshDict.sixDoFRigidBodyMotionCoeffs"
Using #codeStream with "/home/evankielley/OpenFOAM/evankielley-3.0.1/run/case203/dynamicCode/platforms/linux64GccDPInt64Opt/lib/libcodeStream_cf371c8fdd012c5da10c80ca370db81476b8f387.so"
Selecting sixDoFSolver Newmark

PIMPLE: no residual control data found. Calculations will employ 3 corrector loops

Reading field p_rgh

Reading field U

Reading/calculating face flux field phi

Reading transportProperties

Selecting incompressible transport model Newtonian
Selecting incompressible transport model Newtonian
Selecting turbulence model type RAS
Selecting RAS turbulence model kEpsilon
kEpsilonCoeffs
{
    Cmu             0.09;
    C1              1.44;
    C2              1.92;
    C3              -0.33;
    sigmak          1;
    sigmaEps        1.3;
}


Reading g

Reading hRef
Calculating field g.h

No MRF models present

No finite volume options present

GAMGPCG:  Solving for pcorr, Initial residual = 0, Final residual = 0, No Iterations 0
time step continuity errors : sum local = 0, global = 0, cumulative = 0
Reading/calculating face velocity Uf

Courant Number mean: 0 max: 0

Starting time loop

Courant Number mean: 0 max: 0
Interface Courant Number mean: 0 max: 0
deltaT = 0.0111111111111
Time = 0.0111111

PIMPLE: iteration 1

Restraint horizontalSpring:  attachmentPt - anchor (-3.5 0 0) spring length 3.5 force (0.024 -0 -0)
6-DoF rigid body motion
    Centre of rotation: (0.500000259259 0.5 0.497886320444)
    Centre of mass: (0.500000259259 0.5 0.497886320444)
    Orientation: (1 5.57681473019e-18 -2.48741677975e-17 -5.57681473019e-18 1 -1.63773958387e-17 2.48741677975e-17 1.63773958387e-17 1)
    Linear velocity: (4.66666666667e-05 1.38194818243e-17 -0.38046232)
    Angular velocity: (2.94793125096e-15 -4.47735020356e-15 -1.00382665143e-15)
Execution time for mesh.update() = 0.02 s
GAMGPCG:  Solving for pcorr, Initial residual = 1, Final residual = 9.64557591266e-07, No Iterations 6
time step continuity errors : sum local = 1.63766320921e-10, global = -7.46350195784e-11, cumulative = -7.46350195784e-11
smoothSolver:  Solving for alpha.water, Initial residual = 0.000719084161937, Final residual = 5.69535548297e-12, No Iterations 2
Phase-1 volume fraction = 0.499999999994  Min(alpha.water) = 0  Max(alpha.water) = 1.00000000052
MULES: Correcting alpha.water
MULES: Correcting alpha.water
Phase-1 volume fraction = 0.499999999994  Min(alpha.water) = 0  Max(alpha.water) = 1.00000000052
GAMG:  Solving for p_rgh, Initial residual = 1, Final residual = 0.00911399856616, No Iterations 1
time step continuity errors : sum local = 0.0045446226828, global = -0.0021875038944, cumulative = -0.00218750396903
PIMPLE: iteration 2

Restraint horizontalSpring:  attachmentPt - anchor (-3.49999974074 0 -0.00211367955556) spring length 3.50000037898 force (0.0240000259415 -0 1.44938194066e-05)
6-DoF rigid body motion
    Centre of rotation: (0.50000016203 0.499999827867 0.499403111465)
    Centre of mass: (0.50000016203 0.499999827867 0.499403111465)
    Orientation: (0.99999999995 -2.87542676737e-09 -9.97356738036e-06 2.77271219313e-09 0.999999999947 -1.02986795308e-05 9.97356740945e-06 1.02986795027e-05 0.999999999897)
    Linear velocity: (2.91653174489e-05 -3.09839978676e-05 -0.107439936367)
    Angular velocity: (0.00185376231157 -0.00179524213273 5.08332506419e-07)
Execution time for mesh.update() = 0.02 s
GAMGPCG:  Solving for pcorr, Initial residual = 1, Final residual = 2.33687295489e-06, No Iterations 5
time step continuity errors : sum local = 1.07917748358e-08, global = -8.79360918173e-09, cumulative = -0.00218751276264
smoothSolver:  Solving for alpha.water, Initial residual = 0.000526019570555, Final residual = 4.55351860467e-12, No Iterations 2
Phase-1 volume fraction = 0.500000000005  Min(alpha.water) = 0  Max(alpha.water) = 1.00000001726
Applying the previous iteration compression flux
MULES: Correcting alpha.water
MULES: Correcting alpha.water
MULES: Correcting alpha.water
Phase-1 volume fraction = 0.500000000005  Min(alpha.water) = 0  Max(alpha.water) = 1.00000001726
GAMG:  Solving for p_rgh, Initial residual = 0.00280044201112, Final residual = 2.64098959332e-05, No Iterations 3
time step continuity errors : sum local = 0.000393710862719, global = -0.000389540182292, cumulative = -0.00257705294493
PIMPLE: iteration 3

Restraint horizontalSpring:  attachmentPt - anchor (-3.49999983797 -1.72133321485e-07 -0.00059688853537) spring length 3.49999988887 force (0.0239999907604 1.18034237613e-09 4.09294857058e-06)
6-DoF rigid body motion
    Centre of rotation: (0.500000306557 0.499999952813 0.499906895488)
    Centre of mass: (0.500000306557 0.499999952813 0.499906895488)
    Orientation: (0.999999999999 -2.36501547265e-09 -1.538714784e-06 2.36287891547e-09 0.999999999999 -1.3885336041e-06 1.53871478728e-06 1.38853360046e-06 0.999999999998)
    Linear velocity: (5.51803277422e-05 -8.493649209e-06 -0.0167588122095)
    Angular velocity: (0.000249936048214 -0.000276968661593 4.2551049493e-07)
Execution time for mesh.update() = 0.05 s
GAMGPCG:  Solving for pcorr, Initial residual = 1, Final residual = 3.51662375031e-06, No Iterations 5
time step continuity errors : sum local = 1.58219689511e-09, global = -1.43428011459e-09, cumulative = -0.00257705437921
smoothSolver:  Solving for alpha.water, Initial residual = 0.000172881346905, Final residual = 1.71653665114e-09, No Iterations 1
Phase-1 volume fraction = 0.500000001714  Min(alpha.water) = 0  Max(alpha.water) = 1.00000000045
Applying the previous iteration compression flux
MULES: Correcting alpha.water
MULES: Correcting alpha.water
MULES: Correcting alpha.water
Phase-1 volume fraction = 0.500000001714  Min(alpha.water) = -1.21787357522e-32  Max(alpha.water) = 1.00000000045
GAMGPCG:  Solving for p_rgh, Initial residual = 0.000687390469572, Final residual = 1.29569901414e-09, No Iterations 4
time step continuity errors : sum local = 2.6560032075e-08, global = 1.44729029377e-08, cumulative = -0.00257703990631
smoothSolver:  Solving for epsilon, Initial residual = 0.010736894787, Final residual = 1.86017233323e-07, No Iterations 4
smoothSolver:  Solving for k, Initial residual = 0.999999999987, Final residual = 7.89853011769e-07, No Iterations 6
ExecutionTime = 0.54 s  ClockTime = 3 s

Courant Number mean: 0.000685640635138 max: 0.00470020456649
Interface Courant Number mean: 4.76595160571e-05 max: 0.00436146981462
deltaT = 0.0126984126984
Time = 0.0238095

PIMPLE: iteration 1

Restraint horizontalSpring:  attachmentPt - anchor (-3.49999969344 -4.71869400775e-08 -9.31045122752e-05) spring length 3.49999969468 force (0.023999975566 3.23567288025e-10 6.38430347258e-07)
6-DoF rigid body motion
    Centre of rotation: (0.500001862934 0.499999766381 0.499558556262)
    Centre of mass: (0.500001862934 0.499999766381 0.499558556262)
    Orientation: (0.999999999972 -1.11247511627e-08 -7.47173455279e-06 1.10739879706e-08 0.999999999977 -6.79403045345e-06 7.4717346282e-06 6.79403037052e-06 0.999999999949)
    Linear velocity: (0.000189948955496 -2.08694224628e-05 -0.0381046157828)
    Angular velocity: (0.000601429697038 -0.000657481959757 9.50339052923e-07)
Execution time for mesh.update() = 0.03 s
GAMGPCG:  Solving for pcorr, Initial residual = 1, Final residual = 7.92221842642e-06, No Iterations 5
time step continuity errors : sum local = 3.40723140443e-10, global = 1.32366334788e-10, cumulative = -0.00257703977394
smoothSolver:  Solving for alpha.water, Initial residual = 0.000119141912073, Final residual = 7.08216069136e-10, No Iterations 1
Phase-1 volume fraction = 0.500000001008  Min(alpha.water) = -1.2170502255e-32  Max(alpha.water) = 1.00000000692
Applying the previous iteration compression flux
MULES: Correcting alpha.water
MULES: Correcting alpha.water
MULES: Correcting alpha.water
Phase-1 volume fraction = 0.500000001008  Min(alpha.water) = -1.2170502255e-32  Max(alpha.water) = 1.00002449545
GAMG:  Solving for p_rgh, Initial residual = 0.000863834715558, Final residual = 5.9624292369e-06, No Iterations 2
time step continuity errors : sum local = 9.72977502221e-05, global = 1.15061082232e-05, cumulative = -0.00256553366572
PIMPLE: iteration 2

Restraint horizontalSpring:  attachmentPt - anchor (-3.49999813707 -2.33619141143e-07 -0.000441443737624) spring length 3.49999816491 force (0.0239998530015 1.60195086575e-09 3.02702584302e-06)
6-DoF rigid body motion
    Centre of rotation: (0.500001840255 0.499999778229 0.499738450994)
    Centre of mass: (0.500001840255 0.499999778229 0.499738450994)
    Orientation: (0.999999999984 -1.28768244447e-08 -5.59515255693e-06 1.28479791988e-08 0.999999999987 -5.15539935763e-06 5.59515262324e-06 5.15539928567e-06 0.999999999971)
    Linear velocity: (0.00018637697073 -1.90032741182e-05 -0.00977119556169)
    Angular velocity: (0.000343345298884 -0.000361920295954 1.22803844864e-06)
Execution time for mesh.update() = 0.03 s
GAMGPCG:  Solving for pcorr, Initial residual = 1, Final residual = 2.33653735998e-06, No Iterations 5
time step continuity errors : sum local = 3.07860238186e-10, global = -3.48774926275e-11, cumulative = -0.0025655337006
smoothSolver:  Solving for alpha.water, Initial residual = 6.54180896465e-05, Final residual = 1.88263514344e-10, No Iterations 1
Phase-1 volume fraction = 0.500000001892  Min(alpha.water) = -1.21686468094e-32  Max(alpha.water) = 1.00000000738
Applying the previous iteration compression flux
MULES: Correcting alpha.water
MULES: Correcting alpha.water
MULES: Correcting alpha.water
Phase-1 volume fraction = 0.500000001892  Min(alpha.water) = -1.21686468094e-32  Max(alpha.water) = 1.00002541399
GAMG:  Solving for p_rgh, Initial residual = 0.000438528428239, Final residual = 2.54058133947e-06, No Iterations 2
time step continuity errors : sum local = 4.14131392996e-05, global = 2.78950416425e-06, cumulative = -0.00256274419643
PIMPLE: iteration 3

Restraint horizontalSpring:  attachmentPt - anchor (-3.49999815975 -2.21770580233e-07 -0.000261549006061) spring length 3.49999816952 force (0.0239998534944 1.5207040667e-09 1.79346889357e-06)
6-DoF rigid body motion
    Centre of rotation: (0.500001843883 0.499999787553 0.499671103977)
    Centre of mass: (0.500001843883 0.499999787553 0.499671103977)
    Orientation: (0.999999999981 -1.17878250949e-08 -6.22926056687e-06 1.17523015866e-08 0.999999999984 -5.70268460832e-06 6.22926063399e-06 5.702684535e-06 0.999999999964)
    Linear velocity: (0.000186948385933 -1.7534818849e-05 -0.020378350654)
    Angular velocity: (0.000429542726514 -0.000461792306907 1.0559852111e-06)
Execution time for mesh.update() = 0.03 s
GAMGPCG:  Solving for pcorr, Initial residual = 1, Final residual = 2.06908244752e-06, No Iterations 5
time step continuity errors : sum local = 1.23820310692e-10, global = 6.53930968296e-12, cumulative = -0.00256274418989
smoothSolver:  Solving for alpha.water, Initial residual = 2.63648288345e-05, Final residual = 1.14728749337e-10, No Iterations 1
Phase-1 volume fraction = 0.5000000016  Min(alpha.water) = -1.21686040148e-32  Max(alpha.water) = 1.00000000715
Applying the previous iteration compression flux
MULES: Correcting alpha.water
MULES: Correcting alpha.water
MULES: Correcting alpha.water
Phase-1 volume fraction = 0.5000000016  Min(alpha.water) = -1.21686040148e-32  Max(alpha.water) = 1.00002493175
GAMGPCG:  Solving for p_rgh, Initial residual = 0.000167200298046, Final residual = 7.31271688207e-09, No Iterations 3
time step continuity errors : sum local = 1.18858282347e-07, global = -2.92067544288e-08, cumulative = -0.00256277339665
smoothSolver:  Solving for epsilon, Initial residual = 0.0102577721632, Final residual = 6.00478626036e-07, No Iterations 3
smoothSolver:  Solving for k, Initial residual = 0.61033839311, Final residual = 2.6088030406e-07, No Iterations 5
ExecutionTime = 0.94 s  ClockTime = 3 s

Courant Number mean: 0.00168337613667 max: 0.0122002864484
Interface Courant Number mean: 0.000147488115926 max: 0.00943354001341
deltaT = 0.0126984126984
Time = 0.0365079

PIMPLE: iteration 1

Restraint horizontalSpring:  attachmentPt - anchor (-3.49999815612 -2.12447054726e-07 -0.00032889602252) spring length 3.49999817157 force (0.0239998536197 1.45677168614e-09 2.2552744443e-06)
6-DoF rigid body motion
    Centre of rotation: (0.500005086867 0.499999573202 0.499634423611)
    Centre of mass: (0.500005086867 0.499999573202 0.499634423611)
    Orientation: (0.999999999949 -2.73547252142e-08 -1.01322283017e-05 2.725773553e-08 0.999999999954 -9.57239429597e-06 1.01322285631e-05 9.5723940193e-06 0.999999999903)
    Linear velocity: (0.000323821593386 -1.62254710557e-05 0.014601192986)
    Angular velocity: (0.000179936523393 -0.000152925135485 1.39121713978e-06)
Execution time for mesh.update() = 0.03 s
GAMGPCG:  Solving for pcorr, Initial residual = 1, Final residual = 8.37925368088e-06, No Iterations 5
time step continuity errors : sum local = 4.7765467946e-10, global = -1.63470918379e-10, cumulative = -0.00256277356012
smoothSolver:  Solving for alpha.water, Initial residual = 1.28530172712e-05, Final residual = 2.19848434694e-11, No Iterations 1
Phase-1 volume fraction = 0.500000001579  Min(alpha.water) = -1.21567903585e-32  Max(alpha.water) = 1.0000249347
Applying the previous iteration compression flux
MULES: Correcting alpha.water
MULES: Correcting alpha.water
MULES: Correcting alpha.water
Phase-1 volume fraction = 0.500000001579  Min(alpha.water) = -1.21567903585e-32  Max(alpha.water) = 1.00004143215
GAMG:  Solving for p_rgh, Initial residual = 0.000376854548364, Final residual = 2.94950537264e-06, No Iterations 2
time step continuity errors : sum local = 4.7936661235e-05, global = -2.12237410635e-06, cumulative = -0.00256489593423
PIMPLE: iteration 2

Restraint horizontalSpring:  attachmentPt - anchor (-3.49999491313 -4.26798101749e-07 -0.000365576388666) spring length 3.49999493223 force (0.0239995944471 2.92657035425e-09 2.50677080544e-06)
6-DoF rigid body motion
    Centre of rotation: (0.500005113113 0.499999574118 0.49928276687)
    Centre of mass: (0.500005113113 0.499999574118 0.49928276687)
    Orientation: (0.999999999921 -2.38315799856e-08 -1.25531718588e-05 2.36839808239e-08 0.999999999931 -1.17579177266e-05 1.25531721382e-05 1.17579174284e-05 0.999999999852)
    Linear velocity: (0.00032795535528 -1.60811685899e-05 -0.0407847438101)
    Angular velocity: (0.000524156469529 -0.000534223740334 8.32290534183e-07)
Execution time for mesh.update() = 0.05 s
GAMGPCG:  Solving for pcorr, Initial residual = 1, Final residual = 3.600486848e-06, No Iterations 5
time step continuity errors : sum local = 3.58952536918e-10, global = -9.35792916103e-11, cumulative = -0.00256489602781
smoothSolver:  Solving for alpha.water, Initial residual = 0.000121459732838, Final residual = 9.08399170429e-10, No Iterations 1
Phase-1 volume fraction = 0.500000000697  Min(alpha.water) = -1.21572317987e-32  Max(alpha.water) = 1.00002493352
Applying the previous iteration compression flux
MULES: Correcting alpha.water
MULES: Correcting alpha.water
MULES: Correcting alpha.water
Phase-1 volume fraction = 0.500000000697  Min(alpha.water) = -1.21572317987e-32  Max(alpha.water) = 1.00002428639
GAMG:  Solving for p_rgh, Initial residual = 0.000654100848664, Final residual = 4.63322157653e-06, No Iterations 2
time step continuity errors : sum local = 7.44794626714e-05, global = -8.30148234752e-06, cumulative = -0.00257319751015
PIMPLE: iteration 3

Restraint horizontalSpring:  attachmentPt - anchor (-3.49999488689 -4.25881895583e-07 -0.000717233130228) spring length 3.49999496038 force (0.0239995963262 2.92028814525e-09 4.91809449829e-06)
6-DoF rigid body motion
    Centre of rotation: (0.500005102734 0.499999565039 0.499410894999)
    Centre of mass: (0.500005102734 0.499999565039 0.499410894999)
    Orientation: (0.999999999932 -2.70420044312e-08 -1.16195657941e-05 2.69148886859e-08 0.99999999994 -1.09398016858e-05 1.16195660892e-05 1.09398013724e-05 0.999999999873)
    Linear velocity: (0.000326320796857 -1.75110548117e-05 -0.0206045634934)
    Angular velocity: (0.000395303186677 -0.000387180791144 1.33958661683e-06)
Execution time for mesh.update() = 0.03 s
GAMGPCG:  Solving for pcorr, Initial residual = 1, Final residual = 2.149300155e-06, No Iterations 5
time step continuity errors : sum local = 2.01995114889e-10, global = -5.41891723305e-12, cumulative = -0.00257319751557
smoothSolver:  Solving for alpha.water, Initial residual = 6.32482190751e-05, Final residual = 3.61092023288e-10, No Iterations 1
Phase-1 volume fraction = 0.500000001916  Min(alpha.water) = -1.21571649717e-32  Max(alpha.water) = 1.00002493368
Applying the previous iteration compression flux
MULES: Correcting alpha.water
MULES: Correcting alpha.water
MULES: Correcting alpha.water
Phase-1 volume fraction = 0.500000001916  Min(alpha.water) = -1.21571649717e-32  Max(alpha.water) = 1.0000242473
GAMGPCG:  Solving for p_rgh, Initial residual = 0.000352220792565, Final residual = 1.98138567853e-09, No Iterations 4
time step continuity errors : sum local = 3.19655368334e-08, global = 7.83058367235e-09, cumulative = -0.00257318968499
smoothSolver:  Solving for epsilon, Initial residual = 0.00653621455107, Final residual = 5.57472086845e-07, No Iterations 3
smoothSolver:  Solving for k, Initial residual = 0.346205401367, Final residual = 1.42544213324e-07, No Iterations 5
ExecutionTime = 1.36 s  ClockTime = 3 s

Courant Number mean: 0.00146498776674 max: 0.0124611377032
Interface Courant Number mean: 0.000129177513606 max: 0.00844194938047
deltaT = 0.0126984126984
Time = 0.0492063

PIMPLE: iteration 1

Restraint horizontalSpring:  attachmentPt - anchor (-3.49999489727 -4.34960538309e-07 -0.000589105001233) spring length 3.49999494684 force (0.0239995954075 2.98254061622e-09 4.03951494135e-06)
6-DoF rigid body motion
    Centre of rotation: (0.500010150544 0.499999337615 0.498898077546)
    Centre of mass: (0.500010150544 0.499999337615 0.498898077546)
    Orientation: (0.999999999842 -4.47616705402e-08 -1.77741201274e-05 4.44548245588e-08 0.999999999851 -1.72636383453e-05 1.77741208975e-05 1.72636375524e-05 0.999999999693)
    Linear velocity: (0.00046870917201 -1.83083410476e-05 -0.0601641853046)
    Angular velocity: (0.000600701042878 -0.000582161559488 1.43760695452e-06)
Execution time for mesh.update() = 0.02 s
GAMGPCG:  Solving for pcorr, Initial residual = 1, Final residual = 8.56634952551e-06, No Iterations 5
time step continuity errors : sum local = 4.55194961323e-10, global = 4.36622115096e-11, cumulative = -0.00257318964133
smoothSolver:  Solving for alpha.water, Initial residual = 0.000175418945237, Final residual = 2.60343538738e-09, No Iterations 1
Phase-1 volume fraction = 0.499999999324  Min(alpha.water) = -1.21453135055e-32  Max(alpha.water) = 1.00002423914
Applying the previous iteration compression flux
MULES: Correcting alpha.water
MULES: Correcting alpha.water
MULES: Correcting alpha.water
Phase-1 volume fraction = 0.499999999324  Min(alpha.water) = -1.21453135055e-32  Max(alpha.water) = 1.00002397709
GAMG:  Solving for p_rgh, Initial residual = 0.00126398207096, Final residual = 8.18324632706e-06, No Iterations 2
time step continuity errors : sum local = 0.000131175787146, global = -9.85914103907e-06, cumulative = -0.00258304878237
PIMPLE: iteration 2

Restraint horizontalSpring:  attachmentPt - anchor (-3.49998984946 -6.62385273908e-07 -0.00110192245392) spring length 3.49999002292 force (0.0239992006441 4.54193234151e-09 7.55580993182e-06)
6-DoF rigid body motion
    Centre of rotation: (0.500010075895 0.499999328593 0.499332844391)
    Centre of mass: (0.500010075895 0.499999328593 0.499332844391)
    Orientation: (0.999999999892 -4.54533116743e-08 -1.46897528298e-05 4.52387660984e-08 0.999999999893 -1.46051181697e-05 1.4689753492e-05 1.46051175036e-05 0.999999999785)
    Linear velocity: (0.00045695197068 -1.97292925887e-05 0.00831159279714)
    Angular velocity: (0.000181984115898 -9.63737095506e-05 1.55422357914e-06)
Execution time for mesh.update() = 0.02 s
GAMGPCG:  Solving for pcorr, Initial residual = 1, Final residual = 3.06385065949e-06, No Iterations 5
time step continuity errors : sum local = 6.00181714856e-10, global = 8.46413187534e-11, cumulative = -0.00258304869772
smoothSolver:  Solving for alpha.water, Initial residual = 0.000153760241396, Final residual = 5.99910722656e-10, No Iterations 1
Phase-1 volume fraction = 0.500000002477  Min(alpha.water) = -1.21456979709e-32  Max(alpha.water) = 1.00002423977
Applying the previous iteration compression flux
MULES: Correcting alpha.water
MULES: Correcting alpha.water
MULES: Correcting alpha.water
Phase-1 volume fraction = 0.500000002477  Min(alpha.water) = -1.21456979709e-32  Max(alpha.water) = 1.00002395039
GAMG:  Solving for p_rgh, Initial residual = 0.000995821521483, Final residual = 5.85860951958e-06, No Iterations 2
time step continuity errors : sum local = 9.49188543559e-05, global = -2.0577481571e-06, cumulative = -0.00258510644588
PIMPLE: iteration 3

Restraint horizontalSpring:  attachmentPt - anchor (-3.49998992411 -6.71407188457e-07 -0.000667155608828) spring length 3.49998998769 force (0.0239991985792 4.60379452305e-09 4.57464172375e-06)
6-DoF rigid body motion
    Centre of rotation: (0.500010099919 0.499999345757 0.499185375504)
    Centre of mass: (0.500010099919 0.499999345757 0.499185375504)
    Orientation: (0.99999999987 -4.00492533513e-08 -1.61056651759e-05 3.97959166066e-08 0.999999999876 -1.57296666801e-05 1.61056658038e-05 1.57296660372e-05 0.999999999747)
    Linear velocity: (0.000460735801703 -1.70258979013e-05 -0.0149147568905)
    Angular velocity: (0.000359100520054 -0.000319379890448 6.99714463853e-07)
Execution time for mesh.update() = 0.05 s
GAMGPCG:  Solving for pcorr, Initial residual = 1, Final residual = 1.95552279619e-06, No Iterations 5
time step continuity errors : sum local = 2.27952204041e-10, global = -7.31406212345e-12, cumulative = -0.0025851064532
smoothSolver:  Solving for alpha.water, Initial residual = 5.09616482817e-05, Final residual = 3.36480093444e-10, No Iterations 1
Phase-1 volume fraction = 0.500000001581  Min(alpha.water) = -1.21457074815e-32  Max(alpha.water) = 1.00002423957
Applying the previous iteration compression flux
MULES: Correcting alpha.water
MULES: Correcting alpha.water
MULES: Correcting alpha.water
Phase-1 volume fraction = 0.500000001581  Min(alpha.water) = -1.21457074815e-32  Max(alpha.water) = 1.00002417605
GAMGPCG:  Solving for p_rgh, Initial residual = 0.00030722437927, Final residual = 1.30066738944e-09, No Iterations 4
time step continuity errors : sum local = 2.10113846863e-08, global = -6.29105195229e-09, cumulative = -0.00258511274425
smoothSolver:  Solving for epsilon, Initial residual = 0.00561099832268, Final residual = 6.09647214997e-07, No Iterations 3
smoothSolver:  Solving for k, Initial residual = 0.232172355376, Final residual = 9.51519325628e-08, No Iterations 5
ExecutionTime = 1.8 s  ClockTime = 4 s

Courant Number mean: 0.00190966535968 max: 0.0163467867253
Interface Courant Number mean: 0.000177128496101 max: 0.0106144627362
deltaT = 0.0126984126984
Time = 0.0619048

PIMPLE: iteration 1

Restraint horizontalSpring:  attachmentPt - anchor (-3.49998990008 -6.54242777731e-07 -0.000814624495734) spring length 3.49998999488 force (0.0239991989406 4.48609939641e-09 5.58582621468e-06)
6-DoF rigid body motion
    Centre of rotation: (0.500016747669 0.49999914164 0.499324909121)
    Centre of mass: (0.500016747669 0.49999914164 0.499324909121)
    Orientation: (0.999999999839 -3.97619422954e-08 -1.79253367724e-05 3.94319944025e-08 0.999999999831 -1.84067890421e-05 1.79253375013e-05 1.84067883323e-05 0.99999999967)
    Linear velocity: (0.000586284792473 -1.51225650661e-05 0.0368913015585)
    Angular velocity: (6.25462543299e-05 3.27816167933e-05 -7.49656105609e-07)
Execution time for mesh.update() = 0.03 s
GAMGPCG:  Solving for pcorr, Initial residual = 1, Final residual = 9.00744488508e-06, No Iterations 5
time step continuity errors : sum local = 5.68095767827e-10, global = -1.49081131957e-10, cumulative = -0.00258511289333
smoothSolver:  Solving for alpha.water, Initial residual = 6.11533248248e-05, Final residual = 9.61380581926e-11, No Iterations 1
Phase-1 volume fraction = 0.500000001657  Min(alpha.water) = -1.21349731594e-32  Max(alpha.water) = 1.00002417388
Applying the previous iteration compression flux
MULES: Correcting alpha.water
MULES: Correcting alpha.water
MULES: Correcting alpha.water
Phase-1 volume fraction = 0.500000001657  Min(alpha.water) = -1.21349731594e-32  Max(alpha.water) = 1.00002417388
GAMG:  Solving for p_rgh, Initial residual = 0.000237302771532, Final residual = 2.18636613669e-06, No Iterations 2
time step continuity errors : sum local = 3.52832680939e-05, global = -8.2534376565e-07, cumulative = -0.00258593823709
PIMPLE: iteration 2

Restraint horizontalSpring:  attachmentPt - anchor (-3.49998325233 -8.58360002909e-07 -0.000675090878794) spring length 3.49998331744 force (0.0239986649486 5.88559791005e-09 4.62895923838e-06)
6-DoF rigid body motion
    Centre of rotation: (0.50001670953 0.499999149465 0.498816372634)
    Centre of mass: (0.50001670953 0.499999149465 0.498816372634)
    Orientation: (0.999999999781 -5.64512241112e-08 -2.09055060035e-05 5.60104885833e-08 0.999999999778 -2.10822702641e-05 2.0905507189e-05 2.10822690885e-05 0.999999999559)
    Linear velocity: (0.000580277847787 -1.3890174938e-05 -0.0432031952194)
    Angular velocity: (0.000483934491607 -0.000436595093691 1.86966736856e-06)
Execution time for mesh.update() = 0.03 s
GAMGPCG:  Solving for pcorr, Initial residual = 1, Final residual = 5.18010682563e-06, No Iterations 5
time step continuity errors : sum local = 5.72724911395e-10, global = -1.78851196046e-10, cumulative = -0.00258593841595
smoothSolver:  Solving for alpha.water, Initial residual = 0.000174920180182, Final residual = 1.71401789251e-09, No Iterations 1
Phase-1 volume fraction = 0.499999999876  Min(alpha.water) = -1.21358352728e-32  Max(alpha.water) = 1.00002417278
Applying the previous iteration compression flux
MULES: Correcting alpha.water
MULES: Correcting alpha.water
MULES: Correcting alpha.water
Phase-1 volume fraction = 0.499999999876  Min(alpha.water) = -1.21358352728e-32  Max(alpha.water) = 1.00002417278
GAMG:  Solving for p_rgh, Initial residual = 0.000761935918349, Final residual = 5.15235207861e-06, No Iterations 2
time step continuity errors : sum local = 8.2088569058e-05, global = -7.9417835735e-06, cumulative = -0.00259388019952
PIMPLE: iteration 3

Restraint horizontalSpring:  attachmentPt - anchor (-3.49998329047 -8.50535303687e-07 -0.00118362736627) spring length 3.49998349061 force (0.0239986778765 5.83194863569e-09 8.11589357194e-06)
6-DoF rigid body motion
    Centre of rotation: (0.50001664835 0.499999134802 0.499001596117)
    Centre of mass: (0.50001664835 0.499999134802 0.499001596117)
    Orientation: (0.999999999808 -6.98074191127e-08 -1.95735635707e-05 6.94125849877e-08 0.999999999797 -2.01718058475e-05 1.95735649748e-05 2.0171804485e-05 0.999999999605)
    Linear velocity: (0.000570641997952 -1.61995974103e-05 -0.014030496646)
    Angular velocity: (0.000340536303666 -0.000226814204651 3.97756546413e-06)
Execution time for mesh.update() = 0.03 s
GAMGPCG:  Solving for pcorr, Initial residual = 1, Final residual = 2.4089594002e-06, No Iterations 5
time step continuity errors : sum local = 2.63262265637e-10, global = 1.12118672772e-11, cumulative = -0.00259388018831
smoothSolver:  Solving for alpha.water, Initial residual = 7.33280513007e-05, Final residual = 4.76179426705e-10, No Iterations 1
Phase-1 volume fraction = 0.500000002023  Min(alpha.water) = -1.21357680896e-32  Max(alpha.water) = 1.00002417298
Applying the previous iteration compression flux
MULES: Correcting alpha.water
MULES: Correcting alpha.water
MULES: Correcting alpha.water
Phase-1 volume fraction = 0.500000002023  Min(alpha.water) = -1.21357680896e-32  Max(alpha.water) = 1.00002417298
GAMGPCG:  Solving for p_rgh, Initial residual = 0.000465190209529, Final residual = 2.57893963766e-09, No Iterations 4
time step continuity errors : sum local = 4.13082272687e-08, global = 9.39239956122e-09, cumulative = -0.00259387079591
smoothSolver:  Solving for epsilon, Initial residual = 0.00542096874637, Final residual = 6.84547751868e-07, No Iterations 3
smoothSolver:  Solving for k, Initial residual = 0.175540808161, Final residual = 7.2537366121e-08, No Iterations 5
ExecutionTime = 2.2 s  ClockTime = 4 s

Courant Number mean: 0.00185265946274 max: 0.0145533525258
Interface Courant Number mean: 0.000161529340038 max: 0.011110005638
deltaT = 0.0126984126984
Time = 0.0746032

PIMPLE: iteration 1

Restraint horizontalSpring:  attachmentPt - anchor (-3.49998335165 -8.65198303501e-07 -0.000998403883267) spring length 3.49998349405 force (0.0239986785478 5.93248992342e-09 6.84585366502e-06)
6-DoF rigid body motion
    Centre of rotation: (0.500024488284 0.499998929218 0.498487899965)
    Centre of mass: (0.500024488284 0.499998929218 0.498487899965)
    Orientation: (0.999999999721 -1.71348604964e-07 -2.36022186094e-05 1.7073099301e-07 0.999999999658 -2.61675375921e-05 2.36022230851e-05 2.61675335552e-05 0.999999999379)
    Linear velocity: (0.000664147687743 -1.61797847735e-05 -0.0668766472738)
    Angular velocity: (0.000603791075373 -0.000407699373905 1.20004578543e-05)
Execution time for mesh.update() = 0.03 s
GAMGPCG:  Solving for pcorr, Initial residual = 1, Final residual = 8.79299529728e-06, No Iterations 5
time step continuity errors : sum local = 5.55730547386e-10, global = 1.38941042352e-10, cumulative = -0.00259387065697
smoothSolver:  Solving for alpha.water, Initial residual = 0.000175772620884, Final residual = 3.46969689465e-09, No Iterations 1
Phase-1 volume fraction = 0.499999998567  Min(alpha.water) = -1.21263926433e-32  Max(alpha.water) = 1.00002416404
Applying the previous iteration compression flux
MULES: Correcting alpha.water
MULES: Correcting alpha.water
MULES: Correcting alpha.water
Phase-1 volume fraction = 0.499999998567  Min(alpha.water) = -1.21263926433e-32  Max(alpha.water) = 1.00002310125
GAMG:  Solving for p_rgh, Initial residual = 0.00130355452739, Final residual = 8.30589879422e-06, No Iterations 2
time step continuity errors : sum local = 0.000132210797043, global = -1.03687363393e-05, cumulative = -0.00260423939331
PIMPLE: iteration 2

Restraint horizontalSpring:  attachmentPt - anchor (-3.49997551172 -1.07078168243e-06 -0.00151210003514) spring length 3.49997583835 force (0.0239980648286 7.34196229269e-09 1.03679224467e-05)
6-DoF rigid body motion
    Centre of rotation: (0.500024491065 0.499998916478 0.499044078693)
    Centre of mass: (0.500024491065 0.499998916478 0.499044078693)
    Orientation: (0.999999999812 -1.42064887687e-07 -1.93862131382e-05 1.41618934158e-07 0.999999999735 -2.30036425434e-05 1.93862164011e-05 2.30036397936e-05 0.999999999548)
    Linear velocity: (0.000664585645597 -1.81863724906e-05 0.0207215023534)
    Angular velocity: (0.000105477737935 0.000256321629082 7.40432893682e-06)
Execution time for mesh.update() = 0.05 s
GAMGPCG:  Solving for pcorr, Initial residual = 1, Final residual = 3.33351538566e-06, No Iterations 5
time step continuity errors : sum local = 7.18781823502e-10, global = 1.00723223839e-10, cumulative = -0.00260423929258
smoothSolver:  Solving for alpha.water, Initial residual = 0.000195688681133, Final residual = 1.20862746492e-09, No Iterations 1
Phase-1 volume fraction = 0.500000003143  Min(alpha.water) = -1.21265656901e-32  Max(alpha.water) = 1.00002416535
Applying the previous iteration compression flux
MULES: Correcting alpha.water
MULES: Correcting alpha.water
MULES: Correcting alpha.water
Phase-1 volume fraction = 0.500000003143  Min(alpha.water) = -1.21265656901e-32  Max(alpha.water) = 1.00002310764
GAMG:  Solving for p_rgh, Initial residual = 0.00113324496828, Final residual = 6.55624136706e-06, No Iterations 2
time step continuity errors : sum local = 0.000105641650111, global = -7.05290352349e-07, cumulative = -0.00260494458293
PIMPLE: iteration 3

Restraint horizontalSpring:  attachmentPt - anchor (-3.49997550894 -1.08352192191e-06 -0.000955921307347) spring length 3.49997563948 force (0.0239980502631 7.42931299853e-09 6.55440231588e-06)
6-DoF rigid body motion
    Centre of rotation: (0.500024566792 0.499998938433 0.498852966518)
    Centre of mass: (0.500024566792 0.499998938433 0.498852966518)
    Orientation: (0.999999999779 -1.27787995901e-07 -2.10403064238e-05 1.2727700217e-07 0.999999999705 -2.42864201174e-05 2.10403095211e-05 2.42864174341e-05 0.999999999484)
    Linear velocity: (0.000676512603208 -1.4728537458e-05 -0.00937866514948)
    Angular velocity: (0.000307515247485 -4.19801233197e-06 5.14967395907e-06)
Execution time for mesh.update() = 0.02 s
GAMGPCG:  Solving for pcorr, Initial residual = 1, Final residual = 2.09799199295e-06, No Iterations 5
time step continuity errors : sum local = 2.80103093809e-10, global = -1.16324234251e-11, cumulative = -0.00260494459457
smoothSolver:  Solving for alpha.water, Initial residual = 6.5922348328e-05, Final residual = 3.44168760524e-10, No Iterations 1
Phase-1 volume fraction = 0.50000000168  Min(alpha.water) = -1.21265704052e-32  Max(alpha.water) = 1.0000241651
Applying the previous iteration compression flux
MULES: Correcting alpha.water
MULES: Correcting alpha.water
MULES: Correcting alpha.water
Phase-1 volume fraction = 0.50000000168  Min(alpha.water) = -1.21265704052e-32  Max(alpha.water) = 1.00002310874
GAMGPCG:  Solving for p_rgh, Initial residual = 0.000264508098677, Final residual = 3.97549795916e-09, No Iterations 3
time step continuity errors : sum local = 6.38065661526e-08, global = -1.30845736749e-08, cumulative = -0.00260495767914
smoothSolver:  Solving for epsilon, Initial residual = 0.00661169628575, Final residual = 7.58524607842e-07, No Iterations 3
smoothSolver:  Solving for k, Initial residual = 0.141715298396, Final residual = 9.49365916782e-07, No Iterations 4
ExecutionTime = 2.62 s  ClockTime = 5 s

Courant Number mean: 0.00213805441759 max: 0.0172226898754
Interface Courant Number mean: 0.000191956366988 max: 0.0122479134881
deltaT = 0.0126984126984
Time = 0.0873016

PIMPLE: iteration 1

Restraint horizontalSpring:  attachmentPt - anchor (-3.49997543321 -1.06156741375e-06 -0.00114703348197) spring length 3.49997562116 force (0.0239980484044 7.27877857029e-09 7.86478806698e-06)
6-DoF rigid body motion
    Centre of rotation: (0.500033909305 0.499998771015 0.499128138969)
    Centre of mass: (0.500033909305 0.499998771015 0.499128138969)
    Orientation: (0.999999999854 -1.53783845808e-07 -1.70932134513e-05 1.5334036411e-07 0.999999999663 -2.59448973485e-05 1.70932174354e-05 2.59448947236e-05 0.999999999517)
    Linear velocity: (0.000794933213423 -1.16397659698e-05 0.0527183261031)
    Angular velocity: (-4.63051774129e-05 0.000625865051077 -1.0384932684e-06)
Execution time for mesh.update() = 0.03 s
GAMGPCG:  Solving for pcorr, Initial residual = 1, Final residual = 8.69422125124e-06, No Iterations 5
time step continuity errors : sum local = 6.18172184006e-10, global = -1.32513994811e-10, cumulative = -0.00260495781165
smoothSolver:  Solving for alpha.water, Initial residual = 0.000109875900374, Final residual = 4.54094779277e-10, No Iterations 1
Phase-1 volume fraction = 0.500000002096  Min(alpha.water) = -1.21177847453e-32  Max(alpha.water) = 1.00002311031
Applying the previous iteration compression flux
MULES: Correcting alpha.water
MULES: Correcting alpha.water
MULES: Correcting alpha.water
Phase-1 volume fraction = 0.500000002096  Min(alpha.water) = -1.21177847453e-32  Max(alpha.water) = 1.00002311031
GAMG:  Solving for p_rgh, Initial residual = 0.000214209247569, Final residual = 2.00887599934e-06, No Iterations 2
time step continuity errors : sum local = 3.2224948667e-05, global = 5.85634207789e-07, cumulative = -0.00260437217745
PIMPLE: iteration 2

Restraint horizontalSpring:  attachmentPt - anchor (-3.4999660907 -1.22898521332e-06 -0.00087186103147) spring length 3.49996619929 force (0.0239972951985 8.42645905542e-09 5.97785978552e-06)
6-DoF rigid body motion
    Centre of rotation: (0.500033936996 0.499998780132 0.498515359229)
    Centre of mass: (0.500033936996 0.499998780132 0.498515359229)
    Orientation: (0.999999999761 -1.64498765438e-07 -2.18413529042e-05 1.63856049358e-07 0.999999999567 -2.94265675786e-05 2.18413577353e-05 2.94265639928e-05 0.999999999329)
    Linear velocity: (0.000799294518962 -1.02037877809e-05 -0.04379448284)
    Angular velocity: (0.000502057856824 -0.000121966957286 6.28659140367e-07)
Execution time for mesh.update() = 0.03 s
GAMGPCG:  Solving for pcorr, Initial residual = 1, Final residual = 5.69750943989e-06, No Iterations 5
time step continuity errors : sum local = 7.04791060684e-10, global = -2.11541669555e-10, cumulative = -0.00260437238899
smoothSolver:  Solving for alpha.water, Initial residual = 0.000211424612981, Final residual = 2.12844091154e-09, No Iterations 1
Phase-1 volume fraction = 0.499999999565  Min(alpha.water) = -1.211855664e-32  Max(alpha.water) = 1.00002310925
Applying the previous iteration compression flux
MULES: Correcting alpha.water
MULES: Correcting alpha.water
MULES: Correcting alpha.water
Phase-1 volume fraction = 0.499999999565  Min(alpha.water) = -1.211855664e-32  Max(alpha.water) = 1.00002310925
GAMG:  Solving for p_rgh, Initial residual = 0.000804751746455, Final residual = 5.27963245787e-06, No Iterations 2
time step continuity errors : sum local = 8.35014802586e-05, global = -7.10626068105e-06, cumulative = -0.00261147864967
PIMPLE: iteration 3

Restraint horizontalSpring:  attachmentPt - anchor (-3.499966063 -1.21986789148e-06 -0.00148464077079) spring length 3.49996637789 force (0.023997308072 8.36395127038e-09 1.01793506884e-05)
6-DoF rigid body motion
    Centre of rotation: (0.500033866494 0.499998761166 0.498736955877)
    Centre of mass: (0.500033866494 0.499998761166 0.498736955877)
    Orientation: (0.999999999796 -1.7926283031e-07 -2.01908843563e-05 1.78694763188e-07 0.999999999604 -2.8134829456e-05 2.01908893918e-05 2.81348258423e-05 0.9999999994)
    Linear velocity: (0.000788190556943 -1.31910050849e-05 -0.00889301079035)
    Angular velocity: (0.000298609053947 0.000137981770098 2.96139638402e-06)
Execution time for mesh.update() = 0.03 s
GAMGPCG:  Solving for pcorr, Initial residual = 1, Final residual = 2.58860345173e-06, No Iterations 5
time step continuity errors : sum local = 3.00804314397e-10, global = 1.18586860245e-11, cumulative = -0.00261147863781
smoothSolver:  Solving for alpha.water, Initial residual = 7.86895715879e-05, Final residual = 6.12727197198e-10, No Iterations 1
Phase-1 volume fraction = 0.50000000225  Min(alpha.water) = -1.21184865417e-32  Max(alpha.water) = 1.00002310942
Applying the previous iteration compression flux
MULES: Correcting alpha.water
MULES: Correcting alpha.water
MULES: Correcting alpha.water
Phase-1 volume fraction = 0.50000000225  Min(alpha.water) = -1.21184865417e-32  Max(alpha.water) = 1.00002310942
GAMGPCG:  Solving for p_rgh, Initial residual = 0.000521614196891, Final residual = 2.89410998263e-09, No Iterations 4
time step continuity errors : sum local = 4.60577209494e-08, global = 9.85620410963e-09, cumulative = -0.00261146878161
smoothSolver:  Solving for epsilon, Initial residual = 0.00785543207228, Final residual = 8.37532824701e-07, No Iterations 3
smoothSolver:  Solving for k, Initial residual = 0.11923269462, Final residual = 8.07557910849e-07, No Iterations 4
ExecutionTime = 3.04 s  ClockTime = 5 s

Courant Number mean: 0.00215198458531 max: 0.0162515048859
Interface Courant Number mean: 0.000209271391931 max: 0.0131822783606
deltaT = 0.0126984126984
Time = 0.1

PIMPLE: iteration 1

Restraint horizontalSpring:  attachmentPt - anchor (-3.49996613351 -1.23883435055e-06 -0.00126304412286) spring length 3.49996636141 force (0.0239973073499 8.4939932364e-09 8.65998608457e-06)
6-DoF rigid body motion
    Centre of rotation: (0.500044548152 0.499998595572 0.498220879749)
    Centre of mass: (0.500044548152 0.499998595572 0.498220879749)
    Orientation: (0.999999999785 -2.25782402591e-07 -2.07580525515e-05 2.25077769898e-07 0.999999999424 -3.39450249122e-05 2.07580602037e-05 3.39450202327e-05 0.999999999208)
    Linear velocity: (0.000894170575855 -1.28899866041e-05 -0.0723889793766)
    Angular velocity: (0.000616496587932 -0.000227310997658 4.36169241829e-06)
Execution time for mesh.update() = 0.05 s
GAMGPCG:  Solving for pcorr, Initial residual = 1, Final residual = 8.28537818847e-06, No Iterations 5
time step continuity errors : sum local = 5.95919492035e-10, global = -8.44312699918e-12, cumulative = -0.00261146879005
smoothSolver:  Solving for alpha.water, Initial residual = 0.000176642758319, Final residual = 3.98036898965e-09, No Iterations 1
Phase-1 volume fraction = 0.499999998286  Min(alpha.water) = -1.21109163538e-32  Max(alpha.water) = 1.0000231016
Applying the previous iteration compression flux
MULES: Correcting alpha.water
MULES: Correcting alpha.water
MULES: Correcting alpha.water
Phase-1 volume fraction = 0.499999998286  Min(alpha.water) = -1.21109163538e-32  Max(alpha.water) = 1.00002157109
GAMG:  Solving for p_rgh, Initial residual = 0.00136218840353, Final residual = 8.59112077398e-06, No Iterations 2
time step continuity errors : sum local = 0.000135901158824, global = -1.01158362548e-05, cumulative = -0.0026215846263
PIMPLE: iteration 2

Restraint horizontalSpring:  attachmentPt - anchor (-3.49995545185 -1.40442794855e-06 -0.0017791202509) spring length 3.49995590404 force (0.0239964692225 9.62906885708e-09 1.21980422126e-05)
6-DoF rigid body motion
    Centre of rotation: (0.50004444586 0.49999857772 0.49888324011)
    Centre of mass: (0.50004444586 0.49999857772 0.49888324011)
    Orientation: (0.999999999831 -2.14827876652e-07 -1.83818723539e-05 2.14270401247e-07 0.99999999954 -3.0327451513e-05 1.83818788606e-05 3.03274475692e-05 0.999999999371)
    Linear velocity: (0.000878059612544 -1.57016629804e-05 0.0319327774888)
    Angular velocity: (4.67288146413e-05 0.000146937448646 2.64866457529e-06)
Execution time for mesh.update() = 0.02 s
GAMGPCG:  Solving for pcorr, Initial residual = 1, Final residual = 3.54404636418e-06, No Iterations 5
time step continuity errors : sum local = 8.34486021246e-10, global = 1.75727162803e-10, cumulative = -0.00262158445058
smoothSolver:  Solving for alpha.water, Initial residual = 0.000232936785268, Final residual = 1.86340697704e-09, No Iterations 1
Phase-1 volume fraction = 0.500000003966  Min(alpha.water) = -1.2110921034e-32  Max(alpha.water) = 1.00002310291
Applying the previous iteration compression flux
MULES: Correcting alpha.water
MULES: Correcting alpha.water
MULES: Correcting alpha.water
Phase-1 volume fraction = 0.500000003966  Min(alpha.water) = -1.2110921034e-32  Max(alpha.water) = 1.00002157566
GAMG:  Solving for p_rgh, Initial residual = 0.00128480918244, Final residual = 7.36903082814e-06, No Iterations 2
time step continuity errors : sum local = 0.000118224713638, global = 3.3844259783e-07, cumulative = -0.00262124600798
PIMPLE: iteration 3

Restraint horizontalSpring:  attachmentPt - anchor (-3.49995555414 -1.42227986205e-06 -0.00111675988985) spring length 3.49995573231 force (0.023996457363 9.75146042286e-09 7.65674896923e-06)
6-DoF rigid body motion
    Centre of rotation: (0.500044540158 0.499998608564 0.498655040593)
    Centre of mass: (0.500044540158 0.499998608564 0.498655040593)
    Orientation: (0.99999999979 -2.26932678822e-07 -2.04980414265e-05 2.26279230864e-07 0.999999999492 -3.18785525157e-05 2.04980486503e-05 3.18785478707e-05 0.999999999282)
    Linear velocity: (0.000892911434032 -1.08438173021e-05 -0.00400864646599)
    Angular velocity: (0.000291027182419 -0.000186359245498 4.54454482654e-06)
Execution time for mesh.update() = 0.02 s
GAMGPCG:  Solving for pcorr, Initial residual = 1, Final residual = 2.18544506551e-06, No Iterations 5
time step continuity errors : sum local = 3.31272396083e-10, global = -1.58068167861e-11, cumulative = -0.00262124602379
smoothSolver:  Solving for alpha.water, Initial residual = 7.9003808525e-05, Final residual = 4.01414427615e-10, No Iterations 1
Phase-1 volume fraction = 0.50000000185  Min(alpha.water) = -1.21109232106e-32  Max(alpha.water) = 1.00002310269
Applying the previous iteration compression flux
MULES: Correcting alpha.water
MULES: Correcting alpha.water
MULES: Correcting alpha.water
Phase-1 volume fraction = 0.50000000185  Min(alpha.water) = -1.21109232106e-32  Max(alpha.water) = 1.00002157522
GAMGPCG:  Solving for p_rgh, Initial residual = 0.000240118173178, Final residual = 3.79825604697e-09, No Iterations 3
time step continuity errors : sum local = 6.06462058261e-08, global = 4.13271072739e-08, cumulative = -0.00262120469668
smoothSolver:  Solving for epsilon, Initial residual = 0.00909507484834, Final residual = 9.07517979729e-07, No Iterations 3
smoothSolver:  Solving for k, Initial residual = 0.103209418565, Final residual = 7.00925325963e-07, No Iterations 4
ExecutionTime = 3.87 s  ClockTime = 6 s

Courant Number mean: 0.00235631218026 max: 0.0169965653372
Interface Courant Number mean: 0.000238339820899 max: 0.013789456013
deltaT = 0.0142857142857
Time = 0.114286

PIMPLE: iteration 1

Restraint horizontalSpring:  attachmentPt - anchor (-3.49995545984 -1.39143639744e-06 -0.00134495940702) spring length 3.49995571826 force (0.0239964556892 9.53999050517e-09 9.22133415261e-06)
6-DoF rigid body motion
    Centre of rotation: (0.500058118789 0.499998484364 0.499186164561)
    Centre of mass: (0.500058118789 0.499998484364 0.499186164561)
    Orientation: (0.999999999676 -2.84586969336e-07 -2.54644239866e-05 2.83741217563e-07 0.999999999448 -3.32130704528e-05 2.54644334245e-05 3.32130632168e-05 0.999999999124)
    Linear velocity: (0.00100809699012 -6.54408306424e-06 0.0783660020022)
    Angular velocity: (-0.000104194856207 -0.000508934589325 3.5032302984e-06)
Execution time for mesh.update() = 0.03 s
GAMGPCG:  Solving for pcorr, Initial residual = 1, Final residual = 8.29734481427e-06, No Iterations 5
time step continuity errors : sum local = 8.38671751323e-10, global = 2.64337331043e-11, cumulative = -0.00262120467025
smoothSolver:  Solving for alpha.water, Initial residual = 0.000199868693169, Final residual = 2.47717771906e-09, No Iterations 1
Phase-1 volume fraction = 0.500000004263  Min(alpha.water) = -1.21026572581e-32  Max(alpha.water) = 1.00002156974
Applying the previous iteration compression flux
MULES: Correcting alpha.water
MULES: Correcting alpha.water
MULES: Correcting alpha.water
Phase-1 volume fraction = 0.500000004263  Min(alpha.water) = -1.21026572581e-32  Max(alpha.water) = 1.00002156974
GAMG:  Solving for p_rgh, Initial residual = 0.000418113706324, Final residual = 2.59025663473e-06, No Iterations 2
time step continuity errors : sum local = 5.15526227898e-05, global = 2.92939513803e-06, cumulative = -0.00261827527511
PIMPLE: iteration 2

Restraint horizontalSpring:  attachmentPt - anchor (-3.49994188121 -1.51563568579e-06 -0.000813835438909) spring length 3.49994197583 force (0.0239953574178 1.03910925467e-08 5.5795990044e-06)
6-DoF rigid body motion
    Centre of rotation: (0.500058234885 0.499998507269 0.498291892636)
    Centre of mass: (0.500058234885 0.499998507269 0.498291892636)
    Orientation: (0.999999999638 -2.83648564912e-07 -2.69142373617e-05 2.82603491265e-07 0.999999999246 -3.88297658569e-05 2.69142483554e-05 3.88297582368e-05 0.999999998884)
    Linear velocity: (0.00102435036818 -3.33738225047e-06 -0.0468320674589)
    Angular velocity: (0.000682142502155 -0.000711908467209 3.36334987042e-06)
Execution time for mesh.update() = 0.03 s
GAMGPCG:  Solving for pcorr, Initial residual = 1, Final residual = 5.67409047028e-06, No Iterations 5
time step continuity errors : sum local = 1.05968008336e-09, global = -3.30126807837e-10, cumulative = -0.00261827560523
smoothSolver:  Solving for alpha.water, Initial residual = 0.000308298266486, Final residual = 3.87483060317e-09, No Iterations 1
Phase-1 volume fraction = 0.499999997998  Min(alpha.water) = -1.21035608526e-32  Max(alpha.water) = 1.00002156849
Applying the previous iteration compression flux
MULES: Correcting alpha.water
MULES: Correcting alpha.water
MULES: Correcting alpha.water
Phase-1 volume fraction = 0.499999997998  Min(alpha.water) = -1.21035608526e-32  Max(alpha.water) = 1.00002156849
GAMG:  Solving for p_rgh, Initial residual = 0.00108332085187, Final residual = 6.74939818372e-06, No Iterations 2
time step continuity errors : sum local = 0.000132098580908, global = -1.0019238918e-05, cumulative = -0.00262829484415
PIMPLE: iteration 3

Restraint horizontalSpring:  attachmentPt - anchor (-3.49994176512 -1.49273067995e-06 -0.00170810736363) spring length 3.49994218193 force (0.0239953716965 1.02340638537e-08 1.17106723021e-05)
6-DoF rigid body motion
    Centre of rotation: (0.500058128286 0.499998478723 0.49862080012)
    Centre of mass: (0.500058128286 0.499998478723 0.49862080012)
    Orientation: (0.999999999712 -2.96702299419e-07 -2.39887847253e-05 2.95814695181e-07 0.999999999315 -3.70007955543e-05 2.39887956871e-05 3.70007884475e-05 0.999999999028)
    Linear velocity: (0.0010094264974 -7.3338285747e-06 -0.000785019758649)
    Angular velocity: (0.000426086619373 -0.000302345164551 5.20630991981e-06)
Execution time for mesh.update() = 0.05 s
GAMGPCG:  Solving for pcorr, Initial residual = 1, Final residual = 2.56557153899e-06, No Iterations 5
time step continuity errors : sum local = 4.63567959883e-10, global = 1.23628692535e-11, cumulative = -0.00262829483179
smoothSolver:  Solving for alpha.water, Initial residual = 0.000116522623296, Final residual = 1.30631262225e-09, No Iterations 1
Phase-1 volume fraction = 0.500000003057  Min(alpha.water) = -1.21034891987e-32  Max(alpha.water) = 1.00002156865
Applying the previous iteration compression flux
MULES: Correcting alpha.water
MULES: Correcting alpha.water
MULES: Correcting alpha.water
Phase-1 volume fraction = 0.500000003057  Min(alpha.water) = -1.21034891987e-32  Max(alpha.water) = 1.00002156865
GAMGPCG:  Solving for p_rgh, Initial residual = 0.00071074502345, Final residual = 3.49361194363e-09, No Iterations 4
time step continuity errors : sum local = 6.88853899066e-08, global = 1.45003869208e-08, cumulative = -0.0026282803314
smoothSolver:  Solving for epsilon, Initial residual = 0.0115397214961, Final residual = 8.30882893488e-08, No Iterations 4
smoothSolver:  Solving for k, Initial residual = 0.102302312865, Final residual = 7.48562492181e-08, No Iterations 5
ExecutionTime = 4.31 s  ClockTime = 6 s

Courant Number mean: 0.00278300667478 max: 0.0212944780168
Interface Courant Number mean: 0.000300614859317 max: 0.0169209412467
deltaT = 0.0171428571429
Time = 0.131429

PIMPLE: iteration 1

Restraint horizontalSpring:  attachmentPt - anchor (-3.49994187171 -1.52127672515e-06 -0.00137919988006) spring length 3.49994214346 force (0.0239953696138 1.04297724484e-08 9.45570301059e-06)
6-DoF rigid body motion
    Centre of rotation: (0.500076674576 0.499998374474 0.497791285105)
    Centre of mass: (0.500076674576 0.499998374474 0.497791285105)
    Orientation: (0.999999999592 -3.77892348689e-07 -2.85786712236e-05 3.7643032957e-07 0.999999998691 -5.11576891179e-05 2.85786905183e-05 5.11576783391e-05 0.999999998283)
    Linear velocity: (0.00115430738418 -4.82856404097e-06 -0.095991731998)
    Angular velocity: (0.00122555070331 -0.000233142011647 4.24458321454e-06)
Execution time for mesh.update() = 0.03 s
GAMGPCG:  Solving for pcorr, Initial residual = 1, Final residual = 8.51091031266e-06, No Iterations 5
time step continuity errors : sum local = 1.17012636754e-09, global = 2.3479525561e-10, cumulative = -0.00262828009661
smoothSolver:  Solving for alpha.water, Initial residual = 0.000283810703396, Final residual = 1.06143845287e-12, No Iterations 2
Phase-1 volume fraction = 0.500000003056  Min(alpha.water) = -1.20952179943e-32  Max(alpha.water) = 1.00002155928
Applying the previous iteration compression flux
MULES: Correcting alpha.water
MULES: Correcting alpha.water
MULES: Correcting alpha.water
Phase-1 volume fraction = 0.500000003056  Min(alpha.water) = -1.20952179943e-32  Max(alpha.water) = 1.00001803923
GAMG:  Solving for p_rgh, Initial residual = 0.00221665298343, Final residual = 1.27636213391e-05, No Iterations 2
time step continuity errors : sum local = 0.00035102429098, global = -2.95020912938e-05, cumulative = -0.0026577821879
PIMPLE: iteration 2

Restraint horizontalSpring:  attachmentPt - anchor (-3.49992332542 -1.62552580468e-06 -0.00220871489511) spring length 3.49992402236 force (0.0239939170107 1.1143881631e-08 1.51419665421e-05)
6-DoF rigid body motion
    Centre of rotation: (0.50007621769 0.499998330439 0.49906723958)
    Centre of mass: (0.50007621769 0.499998330439 0.49906723958)
    Orientation: (0.999999999869 -3.82183051366e-07 -1.61963353393e-05 3.81513379016e-07 0.999999999145 -4.13471355931e-05 1.61963511276e-05 4.13471294086e-05 0.999999999014)
    Linear velocity: (0.00110100399073 -9.9660351176e-06 0.0528696234299)
    Angular velocity: (8.09861413526e-05 0.00121146384148 4.80669261183e-06)
Execution time for mesh.update() = 0.03 s
GAMGPCG:  Solving for pcorr, Initial residual = 1, Final residual = 3.05106239171e-06, No Iterations 5
time step continuity errors : sum local = 1.65466156789e-09, global = 2.73453457812e-10, cumulative = -0.00265778191445
smoothSolver:  Solving for alpha.water, Initial residual = 0.000449095668293, Final residual = 8.71784982987e-09, No Iterations 1
Phase-1 volume fraction = 0.500000011031  Min(alpha.water) = -1.20950868955e-32  Max(alpha.water) = 1.00002156159
Applying the previous iteration compression flux
MULES: Correcting alpha.water
MULES: Correcting alpha.water
MULES: Correcting alpha.water
Phase-1 volume fraction = 0.500000011031  Min(alpha.water) = -1.20950868955e-32  Max(alpha.water) = 1.00001804827
GAMG:  Solving for p_rgh, Initial residual = 0.00233982673081, Final residual = 1.28749511849e-05, No Iterations 2
time step continuity errors : sum local = 0.000359643712188, global = 5.89178434439e-06, cumulative = -0.0026518901301
PIMPLE: iteration 3

Restraint horizontalSpring:  attachmentPt - anchor (-3.49992378231 -1.66956127107e-06 -0.000932760420018) spring length 3.4999239066 force (0.0239939116763 1.1445765156e-08 6.3945881468e-06)
6-DoF rigid body motion
    Centre of rotation: (0.500076312071 0.49999839835 0.498604234421)
    Centre of mass: (0.500076312071 0.49999839835 0.498604234421)
    Orientation: (0.999999999781 -3.6528263481e-07 -2.09033957274e-05 3.64357422021e-07 0.99999999902 -4.42613498247e-05 2.09034118748e-05 4.42613421987e-05 0.999999998802)
    Linear velocity: (0.00111201510727 -2.04301218207e-06 -0.00114764510291)
    Angular velocity: (0.000420977837057 0.000662306880143 2.81286467839e-06)
Execution time for mesh.update() = 0.03 s
GAMGPCG:  Solving for pcorr, Initial residual = 1, Final residual = 1.91187968461e-06, No Iterations 5
time step continuity errors : sum local = 8.15359123288e-10, global = 5.14387105126e-11, cumulative = -0.00265189007866
smoothSolver:  Solving for alpha.water, Initial residual = 0.000160456766258, Final residual = 1.28818133444e-09, No Iterations 1
Phase-1 volume fraction = 0.500000001772  Min(alpha.water) = -1.20948096581e-32  Max(alpha.water) = 1.00002156121
Applying the previous iteration compression flux
MULES: Correcting alpha.water
MULES: Correcting alpha.water
MULES: Correcting alpha.water
Phase-1 volume fraction = 0.500000001772  Min(alpha.water) = -1.20948096581e-32  Max(alpha.water) = 1.00001804922
GAMGPCG:  Solving for p_rgh, Initial residual = 0.000396028974077, Final residual = 2.38122211041e-09, No Iterations 3
time step continuity errors : sum local = 6.61648104848e-08, global = 5.74634713976e-09, cumulative = -0.00265188433232
smoothSolver:  Solving for epsilon, Initial residual = 0.0154934043164, Final residual = 2.05516314197e-07, No Iterations 4
smoothSolver:  Solving for k, Initial residual = 0.108276800135, Final residual = 1.80682640368e-07, No Iterations 5
ExecutionTime = 4.71 s  ClockTime = 7 s

Courant Number mean: 0.00336369145047 max: 0.0226964282707
Interface Courant Number mean: 0.000335615796826 max: 0.0196351245758
deltaT = 0.0171428571429
Time = 0.148571

PIMPLE: iteration 1

Restraint horizontalSpring:  attachmentPt - anchor (-3.49992368793 -1.60164964591e-06 -0.00139576557887) spring length 3.49992396624 force (0.0239939153915 1.09801954321e-08 9.56874611905e-06)
6-DoF rigid body motion
    Centre of rotation: (0.500095918264 0.499998426339 0.499393795541)
    Centre of mass: (0.500095918264 0.499998426339 0.499393795541)
    Orientation: (0.999999999979 -3.79581528603e-07 6.40351129938e-06 3.79866429549e-07 0.99999999901 -4.44914205202e-05 -6.40349440492e-06 4.44914229517e-05 0.99999999899)
    Linear velocity: (0.00117537411209 5.30832821783e-06 0.0932631090468)
    Angular velocity: (-0.000394136321728 0.00252349885667 -9.91942640698e-07)
Execution time for mesh.update() = 0.03 s
GAMGPCG:  Solving for pcorr, Initial residual = 1, Final residual = 8.32650041547e-06, No Iterations 5
time step continuity errors : sum local = 1.12680793284e-09, global = -9.68660369767e-11, cumulative = -0.00265188442918
smoothSolver:  Solving for alpha.water, Initial residual = 0.00029194316576, Final residual = 7.39924191611e-09, No Iterations 1
Phase-1 volume fraction = 0.500000009054  Min(alpha.water) = -1.20867961692e-32  Max(alpha.water) = 1.00001804977
Applying the previous iteration compression flux
MULES: Correcting alpha.water
MULES: Correcting alpha.water
MULES: Correcting alpha.water
Phase-1 volume fraction = 0.500000009054  Min(alpha.water) = -1.20867961692e-32  Max(alpha.water) = 1.00001804977
GAMG:  Solving for p_rgh, Initial residual = 0.000728101295411, Final residual = 3.67524114566e-06, No Iterations 2
time step continuity errors : sum local = 0.000102289422987, global = 8.52823295316e-06, cumulative = -0.00264335619623
PIMPLE: iteration 2

Restraint horizontalSpring:  attachmentPt - anchor (-3.49990408174 -1.57366122272e-06 -0.000606204459352) spring length 3.49990413424 force (0.0239923303789 1.07876670555e-08 4.15561607583e-06)
6-DoF rigid body motion
    Centre of rotation: (0.500096334979 0.49999834829 0.498217184667)
    Centre of mass: (0.500096334979 0.49999834829 0.498217184667)
    Orientation: (0.999999999949 -4.26817545083e-07 -1.00621138039e-05 4.26438089706e-07 0.999999999289 -3.77112705078e-05 1.00621298926e-05 3.7711266215e-05 0.999999999238)
    Linear velocity: (0.00122399080602 -3.79741289955e-06 -0.0440081595482)
    Angular velocity: (-0.00118515383607 0.000602509018766 4.42695042559e-06)
Execution time for mesh.update() = 0.03 s
GAMGPCG:  Solving for pcorr, Initial residual = 1, Final residual = 5.13195329825e-06, No Iterations 5
time step continuity errors : sum local = 1.43854769353e-09, global = -4.4395909075e-10, cumulative = -0.00264335664019
smoothSolver:  Solving for alpha.water, Initial residual = 0.000405264462969, Final residual = 6.32773714923e-09, No Iterations 1
Phase-1 volume fraction = 0.49999999548  Min(alpha.water) = -1.20878723964e-32  Max(alpha.water) = 1.00001804889
Applying the previous iteration compression flux
MULES: Correcting alpha.water
MULES: Correcting alpha.water
MULES: Correcting alpha.water
Phase-1 volume fraction = 0.49999999548  Min(alpha.water) = -1.20878723964e-32  Max(alpha.water) = 1.00001804889
GAMG:  Solving for p_rgh, Initial residual = 0.00132023750306, Final residual = 7.7432476357e-06, No Iterations 2
time step continuity errors : sum local = 0.000211909589912, global = -1.46613845778e-05, cumulative = -0.00265801802477
PIMPLE: iteration 3

Restraint horizontalSpring:  attachmentPt - anchor (-3.49990366502 -1.65171043232e-06 -0.00178281533302) spring length 3.4999041191 force (0.0239923264149 1.1322704745e-08 1.22214470743e-05)
6-DoF rigid body motion
    Centre of rotation: (0.500096192413 0.499998231626 0.498666043652)
    Centre of mass: (0.500096192413 0.499998231626 0.498666043652)
    Orientation: (0.999999999977 -5.10314708004e-07 -6.74740113083e-06 5.10082487232e-07 0.999999999408 -3.44162851811e-05 6.74741868997e-06 3.44162817386e-05 0.999999999385)
    Linear velocity: (0.00120735810284 -1.74081727819e-05 0.00835872206582)
    Angular velocity: (-0.00156956881939 0.000989225117176 1.41849929968e-05)
Execution time for mesh.update() = 0.03 s
GAMGPCG:  Solving for pcorr, Initial residual = 1, Final residual = 2.49550839526e-06, No Iterations 5
time step continuity errors : sum local = 6.93948621484e-10, global = -4.89895845084e-11, cumulative = -0.00265801807376
smoothSolver:  Solving for alpha.water, Initial residual = 0.000158662792299, Final residual = 2.21226161459e-09, No Iterations 1
Phase-1 volume fraction = 0.500000003798  Min(alpha.water) = -1.20878189184e-32  Max(alpha.water) = 1.00001804882
Applying the previous iteration compression flux
MULES: Correcting alpha.water
MULES: Correcting alpha.water
MULES: Correcting alpha.water
Phase-1 volume fraction = 0.500000003798  Min(alpha.water) = -1.20878189184e-32  Max(alpha.water) = 1.00001804882
GAMGPCG:  Solving for p_rgh, Initial residual = 0.000804987335469, Final residual = 2.74666298967e-09, No Iterations 4
time step continuity errors : sum local = 7.57162976378e-08, global = 1.81052908661e-08, cumulative = -0.00265799996847
smoothSolver:  Solving for epsilon, Initial residual = 0.0176737667399, Final residual = 2.28632079531e-07, No Iterations 4
smoothSolver:  Solving for k, Initial residual = 0.0955094167095, Final residual = 1.63555539187e-07, No Iterations 5
ExecutionTime = 5.11 s  ClockTime = 7 s

Courant Number mean: 0.00381148374789 max: 0.0273163037445
Interface Courant Number mean: 0.000417433605558 max: 0.0225111477328
deltaT = 0.0171428571429
Time = 0.165714

PIMPLE: iteration 1

Restraint horizontalSpring:  attachmentPt - anchor (-3.49990380759 -1.76837408844e-06 -0.00133395634776) spring length 3.4999040618 force (0.0239923232014 1.21224482167e-08 9.14445470261e-06)
6-DoF rigid body motion
    Centre of rotation: (0.500118008436 0.499997604313 0.498160521536)
    Centre of mass: (0.500118008436 0.499997604313 0.498160521536)
    Orientation: (1 -9.84740379738e-07 -1.27746461726e-07 9.84742934574e-07 0.999999999799 2.00008173783e-05 1.27726766088e-07 -2.00008175041e-05 0.9999999998)
    Linear velocity: (0.00133784459647 -5.57782826968e-05 -0.0673363022634)
    Angular velocity: (-0.00477909285162 -0.000216931593179 4.1213675914e-05)
Execution time for mesh.update() = 0.03 s
GAMGPCG:  Solving for pcorr, Initial residual = 1, Final residual = 8.24638329637e-06, No Iterations 5
time step continuity errors : sum local = 8.89213543815e-10, global = -7.87660700157e-11, cumulative = -0.00265800004723
smoothSolver:  Solving for alpha.water, Initial residual = 0.000173024422234, Final residual = 5.20784106384e-09, No Iterations 1
Phase-1 volume fraction = 0.499999998611  Min(alpha.water) = -1.20810473833e-32  Max(alpha.water) = 1.00001804465
Applying the previous iteration compression flux
MULES: Correcting alpha.water
MULES: Correcting alpha.water
MULES: Correcting alpha.water
Phase-1 volume fraction = 0.499999998611  Min(alpha.water) = -1.20810473833e-32  Max(alpha.water) = 1.00001416869
GAMG:  Solving for p_rgh, Initial residual = 0.00139784591904, Final residual = 8.31768836629e-06, No Iterations 2
time step continuity errors : sum local = 0.00022815549302, global = -1.83572054348e-05, cumulative = -0.00267635725267
PIMPLE: iteration 2

Restraint horizontalSpring:  attachmentPt - anchor (-3.49988199156 -2.39568656396e-06 -0.00183947846374) spring length 3.49988247496 force (0.0239905946836 1.64216809262e-08 1.26090486362e-05)
6-DoF rigid body motion
    Centre of rotation: (0.500117720628 0.499997865298 0.499172995857)
    Centre of mass: (0.500117720628 0.499997865298 0.499172995857)
    Orientation: (0.999999999957 -7.8197256965e-07 9.20425410458e-06 7.82170731808e-07 0.999999999768 -2.15294257349e-05 -9.20423726702e-06 2.15294329333e-05 0.999999999726)
    Linear velocity: (0.00130426706777 -2.53301397149e-05 0.0507857018058)
    Angular velocity: (6.61021168102e-05 0.00087180080646 1.75481932035e-05)
Execution time for mesh.update() = 0.02 s
GAMGPCG:  Solving for pcorr, Initial residual = 1, Final residual = 3.40651078458e-06, No Iterations 5
time step continuity errors : sum local = 1.29552432829e-09, global = 3.52311611743e-10, cumulative = -0.00267635690036
smoothSolver:  Solving for alpha.water, Initial residual = 0.000352730313044, Final residual = 6.45230007902e-09, No Iterations 1
Phase-1 volume fraction = 0.500000009968  Min(alpha.water) = -1.20808792016e-32  Max(alpha.water) = 1.00001804575
Applying the previous iteration compression flux
MULES: Correcting alpha.water
MULES: Correcting alpha.water
MULES: Correcting alpha.water
Phase-1 volume fraction = 0.500000009968  Min(alpha.water) = -1.20808792016e-32  Max(alpha.water) = 1.00001420112
GAMG:  Solving for p_rgh, Initial residual = 0.00163884679354, Final residual = 8.86875924375e-06, No Iterations 2
time step continuity errors : sum local = 0.000246783502298, global = 7.1549069912e-06, cumulative = -0.00266920199336
PIMPLE: iteration 3

Restraint horizontalSpring:  attachmentPt - anchor (-3.49988227937 -2.13470248128e-06 -0.000827004143146) spring length 3.49988237708 force (0.0239905894967 1.4632712428e-08 5.66885264319e-06)
6-DoF rigid body motion
    Centre of rotation: (0.500117874007 0.499997944124 0.498807939581)
    Centre of mass: (0.500117874007 0.499997944124 0.498807939581)
    Orientation: (0.999999999978 -6.98154385053e-07 6.63046127402e-06 6.98328690667e-07 0.999999999654 -2.62886446817e-05 -6.6304429182e-06 2.62886493114e-05 0.999999999632)
    Linear velocity: (0.00132216117381 -1.61336859729e-05 0.00819580294228)
    Angular velocity: (0.000621344177032 0.000571525064423 7.76405121003e-06)
Execution time for mesh.update() = 0.03 s
GAMGPCG:  Solving for pcorr, Initial residual = 1, Final residual = 2.12831566729e-06, No Iterations 5
time step continuity errors : sum local = 6.38178663048e-10, global = 8.37771709843e-11, cumulative = -0.00266920190959
smoothSolver:  Solving for alpha.water, Initial residual = 0.000128065274001, Final residual = 1.39888541207e-09, No Iterations 1
Phase-1 volume fraction = 0.500000002404  Min(alpha.water) = -1.20807928477e-32  Max(alpha.water) = 1.00001804574
Applying the previous iteration compression flux
MULES: Correcting alpha.water
MULES: Correcting alpha.water
MULES: Correcting alpha.water
Phase-1 volume fraction = 0.500000002404  Min(alpha.water) = -1.20807928477e-32  Max(alpha.water) = 1.00001420023
GAMGPCG:  Solving for p_rgh, Initial residual = 0.000339307146038, Final residual = 2.9260670664e-09, No Iterations 3
time step continuity errors : sum local = 8.10812227541e-08, global = 4.31288682451e-09, cumulative = -0.0026691975967
smoothSolver:  Solving for epsilon, Initial residual = 0.019974034724, Final residual = 2.42802105855e-07, No Iterations 4
smoothSolver:  Solving for k, Initial residual = 0.0856276883163, Final residual = 1.44707218994e-07, No Iterations 5
ExecutionTime = 5.51 s  ClockTime = 8 s

Courant Number mean: 0.00354799996244 max: 0.0240508734141
Interface Courant Number mean: 0.000391308836722 max: 0.0207945907071
deltaT = 0.0171428571429
Time = 0.182857

PIMPLE: iteration 1

Restraint horizontalSpring:  attachmentPt - anchor (-3.49988212599 -2.05587573493e-06 -0.00119206041912) spring length 3.499882329 force (0.0239905849286 1.40923778704e-08 8.17119711333e-06)
6-DoF rigid body motion
    Centre of rotation: (0.500141391572 0.499998035165 0.499554908726)
    Centre of mass: (0.500141391572 0.499998035165 0.499554908726)
    Orientation: (0.999999999819 -4.71493186799e-07 1.90133341758e-05 4.73431500843e-07 0.999999994803 -0.000101945108156 -1.90132860106e-05 0.000101945117139 0.999999994623)
    Linear velocity: (0.0014215547731 2.67550496846e-05 0.07895059727)
    Angular velocity: (0.00820524258831 0.000873146461184 -3.41507753941e-05)
Execution time for mesh.update() = 0.02 s
GAMGPCG:  Solving for pcorr, Initial residual = 1, Final residual = 8.30057370257e-06, No Iterations 5
time step continuity errors : sum local = 8.40563466676e-10, global = -7.55025225876e-11, cumulative = -0.0026691976722
smoothSolver:  Solving for alpha.water, Initial residual = 0.000279885917961, Final residual = 6.12251282025e-09, No Iterations 1
Phase-1 volume fraction = 0.500000008405  Min(alpha.water) = -1.20741563098e-32  Max(alpha.water) = 1.00001421013
Applying the previous iteration compression flux
MULES: Correcting alpha.water
MULES: Correcting alpha.water
MULES: Correcting alpha.water
Phase-1 volume fraction = 0.500000008405  Min(alpha.water) = -1.20741563098e-32  Max(alpha.water) = 1.00001421013
GAMG:  Solving for p_rgh, Initial residual = 0.000836065732628, Final residual = 4.04343020639e-06, No Iterations 2
time step continuity errors : sum local = 0.000112217385291, global = 1.10288050254e-05, cumulative = -0.00265816886718
PIMPLE: iteration 2

Restraint horizontalSpring:  attachmentPt - anchor (-3.49985860843 -1.96483547454e-06 -0.000445091274443) spring length 3.49985863673 force (0.0239886907445 1.34673527808e-08 3.05073950987e-06)
6-DoF rigid body motion
    Centre of rotation: (0.500141649123 0.499997855877 0.498553385118)
    Centre of mass: (0.500141649123 0.499997855877 0.498553385118)
    Orientation: (1 -6.95770143387e-07 4.62067269581e-07 6.95806697627e-07 0.99999999687 -7.91149257047e-05 -4.62012222332e-07 7.91149260262e-05 0.99999999687)
    Linear velocity: (0.00145160245774 5.83814153579e-06 -0.0378938236325)
    Angular velocity: (0.00554172199746 -0.00129117059942 -8.11416359417e-06)
Execution time for mesh.update() = 0.02 s
GAMGPCG:  Solving for pcorr, Initial residual = 1, Final residual = 4.75081402304e-06, No Iterations 5
time step continuity errors : sum local = 1.25146443233e-09, global = -3.53879725134e-10, cumulative = -0.00265816922106
smoothSolver:  Solving for alpha.water, Initial residual = 0.000345360524621, Final residual = 3.73650330198e-09, No Iterations 1
Phase-1 volume fraction = 0.499999998688  Min(alpha.water) = -1.20745783633e-32  Max(alpha.water) = 1.0000142104
Applying the previous iteration compression flux
MULES: Correcting alpha.water
MULES: Correcting alpha.water
MULES: Correcting alpha.water
Phase-1 volume fraction = 0.499999998688  Min(alpha.water) = -1.20745783633e-32  Max(alpha.water) = 1.0000142104
GAMG:  Solving for p_rgh, Initial residual = 0.00124191727106, Final residual = 6.93741375835e-06, No Iterations 2
time step continuity errors : sum local = 0.000189625085679, global = -1.17807165498e-05, cumulative = -0.00266994993761
PIMPLE: iteration 3

Restraint horizontalSpring:  attachmentPt - anchor (-3.49985835088 -2.14412325866e-06 -0.00144661488218) spring length 3.49985864985 force (0.0239886899385 1.46962256427e-08 9.91537153504e-06)
6-DoF rigid body motion
    Centre of rotation: (0.500141625003 0.499997750973 0.498929825317)
    Centre of mass: (0.500141625003 0.499997750973 0.498929825317)
    Orientation: (0.999999999995 -7.79458209082e-07 3.1279033082e-06 7.79694567411e-07 0.999999997145 -7.55651715821e-05 -3.12784439938e-06 7.55651740206e-05 0.99999999714)
    Linear velocity: (0.00144878838751 -6.40067944812e-06 0.00602419956186)
    Angular velocity: (0.00512758407926 -0.000980157117477 1.67024548852e-06)
Execution time for mesh.update() = 0.02 s
GAMGPCG:  Solving for pcorr, Initial residual = 1, Final residual = 2.48666513038e-06, No Iterations 5
time step continuity errors : sum local = 6.09338138767e-10, global = -3.9784549438e-11, cumulative = -0.00266994997739
smoothSolver:  Solving for alpha.water, Initial residual = 0.000131840127431, Final residual = 1.46021377223e-09, No Iterations 1
Phase-1 volume fraction = 0.500000003798  Min(alpha.water) = -1.20745629331e-32  Max(alpha.water) = 1.00001420995
Applying the previous iteration compression flux
MULES: Correcting alpha.water
MULES: Correcting alpha.water
MULES: Correcting alpha.water
Phase-1 volume fraction = 0.500000003798  Min(alpha.water) = -1.20745629331e-32  Max(alpha.water) = 1.00001420995
GAMGPCG:  Solving for p_rgh, Initial residual = 0.000716663340015, Final residual = 2.20880592481e-09, No Iterations 4
time step continuity errors : sum local = 6.07181748458e-08, global = 2.01581218903e-08, cumulative = -0.00266992981927
smoothSolver:  Solving for epsilon, Initial residual = 0.0223088322331, Final residual = 2.6126071875e-07, No Iterations 4
smoothSolver:  Solving for k, Initial residual = 0.0777335112784, Final residual = 1.31665100282e-07, No Iterations 5
ExecutionTime = 5.91 s  ClockTime = 8 s

Courant Number mean: 0.0035792436311 max: 0.0246147831376
Interface Courant Number mean: 0.000427432357602 max: 0.0208271564415
deltaT = 0.0171428571429
Time = 0.2

PIMPLE: iteration 1

Restraint horizontalSpring:  attachmentPt - anchor (-3.499858375 -2.24902743856e-06 -0.00107017468337) spring length 3.49985853862 force (0.0239886819677 1.54152534702e-08 7.33517684963e-06)
6-DoF rigid body motion
    Centre of rotation: (0.500167758011 0.49999743986 0.498383180154)
    Centre of mass: (0.500167758011 0.49999743986 0.498383180154)
    Orientation: (0.999999999063 -1.06021913121e-06 -4.32739057243e-05 1.052615199e-06 0.999999984561 -0.000175715981822 4.32740913537e-05 0.000175715936106 0.999999983626)
    Linear velocity: (0.00160006259891 -2.9895841431e-05 -0.0697994685541)
    Angular velocity: (0.0065566759327 -0.00443339356325 3.02652683037e-05)
Execution time for mesh.update() = 0.03 s
GAMGPCG:  Solving for pcorr, Initial residual = 1, Final residual = 8.29640897701e-06, No Iterations 5
time step continuity errors : sum local = 8.86336775284e-10, global = -1.18981500881e-10, cumulative = -0.00266992993825
smoothSolver:  Solving for alpha.water, Initial residual = 0.000187187318694, Final residual = 5.78648457515e-09, No Iterations 1
Phase-1 volume fraction = 0.499999998039  Min(alpha.water) = -1.20632612612e-32  Max(alpha.water) = 1.00001420837
Applying the previous iteration compression flux
MULES: Correcting alpha.water
MULES: Correcting alpha.water
MULES: Correcting alpha.water
Phase-1 volume fraction = 0.499999998039  Min(alpha.water) = -1.20632612612e-32  Max(alpha.water) = 1.0000221861
GAMG:  Solving for p_rgh, Initial residual = 0.00139399634896, Final residual = 8.3324629182e-06, No Iterations 2
time step continuity errors : sum local = 0.000227969357834, global = -1.83844041753e-05, cumulative = -0.00268831434243
PIMPLE: iteration 2

Restraint horizontalSpring:  attachmentPt - anchor (-3.49983224199 -2.56014047467e-06 -0.00161681984616) spring length 3.49983261545 force (0.0239866066765 1.75462931811e-08 1.10811087604e-05)
6-DoF rigid body motion
    Centre of rotation: (0.500167327328 0.499997682435 0.49944857221)
    Centre of mass: (0.500167327328 0.499997682435 0.49944857221)
    Orientation: (0.999999999711 -1.43862848907e-06 -2.40155912666e-05 1.43387248791e-06 0.99999998039 -0.000198036904778 2.40158756972e-05 0.000198036870285 0.999999980102)
    Linear velocity: (0.0015498161682 -1.59532343733e-06 0.0544962712927)
    Angular velocity: (0.00916078291779 -0.0021866003885 7.47805993084e-05)
Execution time for mesh.update() = 0.06 s
GAMGPCG:  Solving for pcorr, Initial residual = 1, Final residual = 3.62775583616e-06, No Iterations 5
[...]
6-DoF rigid body motion
    Centre of rotation: (0.578450073763 0.492737003274 0.500336639192)
    Centre of mass: (0.578450073763 0.492737003274 0.500336639192)
    Orientation: (0.999999980054 -8.70572176121e-05 -0.000179757196246 8.70648336252e-05 0.999999995313 4.23609445907e-05 0.000179753507577 -4.23765942761e-05 0.999999982946)
    Linear velocity: (0.00138872073367 0.000692492073414 -0.000126059081864)
    Angular velocity: (7.60582215816e-07 -0.000171300285306 -0.000165342260054)
Execution time for mesh.update() = 0.05 s
GAMGPCG:  Solving for pcorr, Initial residual = 1, Final residual = 4.38435140433e-06, No Iterations 5
time step continuity errors : sum local = 1.23599539557e-11, global = -1.0309730976e-12, cumulative = -0.00316783275711
smoothSolver:  Solving for alpha.water, Initial residual = 4.94457929823e-06, Final residual = 1.0774814292e-09, No Iterations 1
Phase-1 volume fraction = 0.499999808864  Min(alpha.water) = 0  Max(alpha.water) = 1.00000340304
Applying the previous iteration compression flux
MULES: Correcting alpha.water
MULES: Correcting alpha.water
MULES: Correcting alpha.water
Phase-1 volume fraction = 0.499999808864  Min(alpha.water) = -1.45187732529e-11  Max(alpha.water) = 1.00000340304
GAMG:  Solving for p_rgh, Initial residual = 3.6225781663e-07, Final residual = 7.78751137966e-09, No Iterations 2
time step continuity errors : sum local = 2.86382685712e-07, global = -2.48137639252e-07, cumulative = -0.00316808089475
PIMPLE: iteration 3

Restraint horizontalSpring:  attachmentPt - anchor (-3.42154992624 -0.00726299672586 0.000336639191844) spring length 3.42155765145 force (0.0177245720971 3.76243257832e-05 -1.74388384071e-06)
6-DoF rigid body motion
    Centre of rotation: (0.578450075528 0.492737003374 0.500336685836)
    Centre of mass: (0.578450075528 0.492737003374 0.500336685836)
    Orientation: (0.999999980067 -8.70551468648e-05 -0.000179689283274 8.7062760722e-05 0.999999995313 4.23649627847e-05 0.000179685594344 -4.23806061853e-05 0.999999982958)
    Linear velocity: (0.00138889722426 0.000692502070702 -0.000121394618769)
    Angular velocity: (3.58793452283e-07 -0.000164508997213 -0.000165549622444)
Execution time for mesh.update() = 0.05 s
GAMGPCG:  Solving for pcorr, Initial residual = 1, Final residual = 2.37324884869e-06, No Iterations 6
time step continuity errors : sum local = 3.81204411853e-12, global = -2.69943886006e-12, cumulative = -0.00316808089745
smoothSolver:  Solving for alpha.water, Initial residual = 4.92621621325e-06, Final residual = 1.07340562581e-09, No Iterations 1
Phase-1 volume fraction = 0.499999808868  Min(alpha.water) = 0  Max(alpha.water) = 1.00000340304
Applying the previous iteration compression flux
MULES: Correcting alpha.water
MULES: Correcting alpha.water
MULES: Correcting alpha.water
Phase-1 volume fraction = 0.499999808868  Min(alpha.water) = -1.37647947331e-11  Max(alpha.water) = 1.00000340304
GAMGPCG:  Solving for p_rgh, Initial residual = 8.18438294709e-08, Final residual = 4.20721312305e-09, No Iterations 1
time step continuity errors : sum local = 1.5471986786e-07, global = -4.12703175232e-08, cumulative = -0.00316812216776
smoothSolver:  Solving for epsilon, Initial residual = 0.000300325624223, Final residual = 7.35771453294e-07, No Iterations 2
smoothSolver:  Solving for k, Initial residual = 0.000500475612064, Final residual = 9.22788307034e-08, No Iterations 3
ExecutionTime = 266.49 s  ClockTime = 269 s

Courant Number mean: 0.0174226701063 max: 0.172690362361
Interface Courant Number mean: 0.000675565870583 max: 0.0204111675753
deltaT = 0.02
Time = 9.96

PIMPLE: iteration 1

Restraint horizontalSpring:  attachmentPt - anchor (-3.42154992447 -0.00726299662588 0.000336685836475) spring length 3.42155764969 force (0.0177245719562 3.76243249857e-05 -1.7441254598e-06)
6-DoF rigid body motion
    Centre of rotation: (0.578477491805 0.492750902251 0.50033413767)
    Centre of mass: (0.578477491805 0.492750902251 0.50033413767)
    Orientation: (0.999999979673 -8.37303898567e-05 -0.000183420212905 8.37381634262e-05 0.999999995596 4.23739346754e-05 0.000183416664111 -4.23892930858e-05 0.999999982281)
    Linear velocity: (0.0013527304321 0.000697385570531 -0.000133422037464)
    Angular velocity: (-1.19532147903e-06 -0.000208598056766 -0.000166910268399)
Execution time for mesh.update() = 0.05 s
GAMGPCG:  Solving for pcorr, Initial residual = 1, Final residual = 5.84903855659e-06, No Iterations 4
time step continuity errors : sum local = 9.16406118532e-12, global = -8.18218278353e-13, cumulative = -0.00316812216858
smoothSolver:  Solving for alpha.water, Initial residual = 5.54325896231e-06, Final residual = 1.08642898651e-09, No Iterations 1
Phase-1 volume fraction = 0.499999807826  Min(alpha.water) = 0  Max(alpha.water) = 1.00000340395
Applying the previous iteration compression flux
MULES: Correcting alpha.water
MULES: Correcting alpha.water
MULES: Correcting alpha.water
Phase-1 volume fraction = 0.499999807826  Min(alpha.water) = -1.36906909903e-11  Max(alpha.water) = 1.00000340395
GAMG:  Solving for p_rgh, Initial residual = 1.39252104612e-05, Final residual = 4.2549821538e-08, No Iterations 2
time step continuity errors : sum local = 1.56476376493e-06, global = -3.97010003326e-07, cumulative = -0.00316851917859
PIMPLE: iteration 2

Restraint horizontalSpring:  attachmentPt - anchor (-3.4215225082 -0.00724909774947 0.000334137669912) spring length 3.42153020375 force (0.0177223764393 3.75479742874e-05 -1.73072471526e-06)
6-DoF rigid body motion
    Centre of rotation: (0.578477491974 0.492750901809 0.50033410652)
    Centre of mass: (0.578477491974 0.492750901809 0.50033410652)
    Orientation: (0.999999979664 -8.37216385564e-05 -0.000183472233457 8.37294126525e-05 0.999999995597 4.23647864287e-05 0.0001834686858 -4.23801475896e-05 0.999999982272)
    Linear velocity: (0.00135274735239 0.000697341382614 -0.000136536989183)
    Angular velocity: (-2.80330272773e-07 -0.000213800148237 -0.000167785178182)
Execution time for mesh.update() = 0.04 s
GAMGPCG:  Solving for pcorr, Initial residual = 1, Final residual = 4.92893917481e-06, No Iterations 5
time step continuity errors : sum local = 1.41634831109e-11, global = -1.06796252934e-12, cumulative = -0.00316851917965
smoothSolver:  Solving for alpha.water, Initial residual = 4.93765752389e-06, Final residual = 1.0765505141e-09, No Iterations 1
Phase-1 volume fraction = 0.499999807851  Min(alpha.water) = 0  Max(alpha.water) = 1.00000340394
Applying the previous iteration compression flux
MULES: Correcting alpha.water
MULES: Correcting alpha.water
MULES: Correcting alpha.water
Phase-1 volume fraction = 0.499999807851  Min(alpha.water) = -1.42965259885e-11  Max(alpha.water) = 1.00000340394
GAMG:  Solving for p_rgh, Initial residual = 3.40637851929e-07, Final residual = 8.08164110916e-09, No Iterations 2
time step continuity errors : sum local = 2.97196309633e-07, global = -2.59639966198e-07, cumulative = -0.00316877881962
PIMPLE: iteration 3

Restraint horizontalSpring:  attachmentPt - anchor (-3.42152250803 -0.00724909819135 0.000334106520395) spring length 3.42153020358 force (0.0177223764256 3.7547976549e-05 -1.73056336961e-06)
6-DoF rigid body motion
    Centre of rotation: (0.57847749371 0.492750901922 0.500334151368)
    Centre of mass: (0.57847749371 0.492750901922 0.500334151368)
    Orientation: (0.999999979677 -8.37203518585e-05 -0.000183404307967 8.37281241138e-05 0.999999995597 4.23704460807e-05 0.000183400759891 -4.23858013183e-05 0.999999982284)
    Linear velocity: (0.00135292092544 0.000697352708334 -0.000132052183915)
    Angular velocity: (-8.46278580266e-07 -0.000207007605193 -0.000167914135704)
Execution time for mesh.update() = 0.04 s
GAMGPCG:  Solving for pcorr, Initial residual = 1, Final residual = 2.80880093153e-06, No Iterations 6
time step continuity errors : sum local = 4.54891153431e-12, global = -3.15563432271e-12, cumulative = -0.00316877882278
smoothSolver:  Solving for alpha.water, Initial residual = 4.9232382808e-06, Final residual = 1.07249501091e-09, No Iterations 1
Phase-1 volume fraction = 0.499999807855  Min(alpha.water) = 0  Max(alpha.water) = 1.00000340394
Applying the previous iteration compression flux
MULES: Correcting alpha.water
MULES: Correcting alpha.water
MULES: Correcting alpha.water
Phase-1 volume fraction = 0.499999807855  Min(alpha.water) = -1.35223345607e-11  Max(alpha.water) = 1.00000340394
GAMGPCG:  Solving for p_rgh, Initial residual = 8.0163823166e-08, Final residual = 4.19672039101e-09, No Iterations 1
time step continuity errors : sum local = 1.54332452996e-07, global = -4.35035028814e-08, cumulative = -0.00316882232628
smoothSolver:  Solving for epsilon, Initial residual = 0.000295537731801, Final residual = 7.23185328057e-07, No Iterations 2
smoothSolver:  Solving for k, Initial residual = 0.000494830670236, Final residual = 9.10795614616e-08, No Iterations 3
ExecutionTime = 266.94 s  ClockTime = 269 s

Courant Number mean: 0.0174368823247 max: 0.172780851788
Interface Courant Number mean: 0.000673890825556 max: 0.0203351777902
deltaT = 0.02
Time = 9.98

PIMPLE: iteration 1

Restraint horizontalSpring:  attachmentPt - anchor (-3.42152250629 -0.00724909807809 0.000334151368448) spring length 3.42153020184 force (0.0177223762871 3.75479756879e-05 -1.73079565532e-06)
6-DoF rigid body motion
    Centre of rotation: (0.578504195172 0.49276489726 0.50033140106)
    Centre of mass: (0.578504195172 0.49276489726 0.50033140106)
    Orientation: (0.999999979114 -8.03272446088e-05 -0.000187933142959 8.03352144718e-05 0.999999995874 4.24008050653e-05 0.000187929736244 -4.24159018291e-05 0.999999981442)
    Linear velocity: (0.00131722525966 0.000702181115032 -0.00014297869172)
    Angular velocity: (-2.12622122535e-06 -0.000245890284272 -0.000171377389685)
Execution time for mesh.update() = 0.04 s
GAMGPCG:  Solving for pcorr, Initial residual = 1, Final residual = 6.72068541557e-06, No Iterations 4
time step continuity errors : sum local = 1.05277196595e-11, global = 2.08202735801e-12, cumulative = -0.0031688223242
smoothSolver:  Solving for alpha.water, Initial residual = 5.5281208072e-06, Final residual = 1.08509989463e-09, No Iterations 1
Phase-1 volume fraction = 0.499999806813  Min(alpha.water) = 0  Max(alpha.water) = 1.00000340469
Applying the previous iteration compression flux
MULES: Correcting alpha.water
MULES: Correcting alpha.water
MULES: Correcting alpha.water
Phase-1 volume fraction = 0.499999806813  Min(alpha.water) = -1.35393511888e-11  Max(alpha.water) = 1.00000340469
GAMG:  Solving for p_rgh, Initial residual = 1.43016168744e-05, Final residual = 4.44567916978e-08, No Iterations 2
time step continuity errors : sum local = 1.63487779572e-06, global = -4.02433423424e-07, cumulative = -0.00316922475762
PIMPLE: iteration 2

Restraint horizontalSpring:  attachmentPt - anchor (-3.42149580483 -0.00723510273986 0.000331401059692) spring length 3.42150347055 force (0.0177202379427 3.74712550894e-05 -1.71635622756e-06)
6-DoF rigid body motion
    Centre of rotation: (0.578504195058 0.492764896922 0.500331373012)
    Centre of mass: (0.578504195058 0.492764896922 0.500331373012)
    Orientation: (0.999999979107 -8.03227174733e-05 -0.000187973494725 8.03306872192e-05 0.999999995875 4.23910769872e-05 0.000187970088983 -4.24061761415e-05 0.999999981434)
    Linear velocity: (0.00131721393028 0.0007021472644 -0.000145783450843)
    Angular velocity: (-1.15332362675e-06 -0.000249925479073 -0.000171829932321)
Execution time for mesh.update() = 0.06 s
GAMGPCG:  Solving for pcorr, Initial residual = 1, Final residual = 4.78747480413e-06, No Iterations 5
time step continuity errors : sum local = 1.41029052007e-11, global = -1.91684789562e-12, cumulative = -0.00316922475954
smoothSolver:  Solving for alpha.water, Initial residual = 4.93315734276e-06, Final residual = 1.07543263884e-09, No Iterations 1
Phase-1 volume fraction = 0.499999806839  Min(alpha.water) = 0  Max(alpha.water) = 1.00000340469
Applying the previous iteration compression flux
MULES: Correcting alpha.water
MULES: Correcting alpha.water
MULES: Correcting alpha.water
Phase-1 volume fraction = 0.499999806839  Min(alpha.water) = -1.40594696975e-11  Max(alpha.water) = 1.00000340469
GAMG:  Solving for p_rgh, Initial residual = 3.14665389946e-07, Final residual = 8.045125192e-09, No Iterations 2
time step continuity errors : sum local = 2.95840960235e-07, global = -2.56799390628e-07, cumulative = -0.00316948155893
PIMPLE: iteration 3

Restraint horizontalSpring:  attachmentPt - anchor (-3.42149580494 -0.00723510307837 0.0003313730121) spring length 3.42150347066 force (0.0177202379516 3.74712568601e-05 -1.71621096734e-06)
6-DoF rigid body motion
    Centre of rotation: (0.578504196823 0.49276489703 0.500331417708)
    Centre of mass: (0.578504196823 0.49276489703 0.500331417708)
    Orientation: (0.99999997912 -8.03225899442e-05 -0.000187905029506 8.03305579192e-05 0.999999995875 4.23971039583e-05 0.000187901623286 -4.24121975889e-05 0.999999981447)
    Linear velocity: (0.00131739036841 0.000702158062748 -0.000141313898066)
    Angular velocity: (-1.75602540304e-06 -0.000243078958273 -0.000171842975443)
Execution time for mesh.update() = 0.05 s
GAMGPCG:  Solving for pcorr, Initial residual = 1, Final residual = 2.46443171353e-06, No Iterations 6
time step continuity errors : sum local = 3.99463089402e-12, global = -2.75217084885e-12, cumulative = -0.00316948156168
smoothSolver:  Solving for alpha.water, Initial residual = 4.92249411482e-06, Final residual = 1.07137183065e-09, No Iterations 1
Phase-1 volume fraction = 0.499999806842  Min(alpha.water) = 0  Max(alpha.water) = 1.00000340469
Applying the previous iteration compression flux
MULES: Correcting alpha.water
MULES: Correcting alpha.water
MULES: Correcting alpha.water
Phase-1 volume fraction = 0.499999806842  Min(alpha.water) = -1.3475720047e-11  Max(alpha.water) = 1.00000340469
GAMGPCG:  Solving for p_rgh, Initial residual = 8.04199840395e-08, Final residual = 4.18125912339e-09, No Iterations 1
time step continuity errors : sum local = 1.53757412673e-07, global = -4.33896924932e-08, cumulative = -0.00316952495137
smoothSolver:  Solving for epsilon, Initial residual = 0.000291105013396, Final residual = 7.11690079399e-07, No Iterations 2
smoothSolver:  Solving for k, Initial residual = 0.000489512046323, Final residual = 8.99807796131e-08, No Iterations 3
ExecutionTime = 267.39 s  ClockTime = 270 s

Courant Number mean: 0.0174509483094 max: 0.172867142472
Interface Courant Number mean: 0.000672210319587 max: 0.0202587944642
deltaT = 0.02
Time = 10

PIMPLE: iteration 1

Restraint horizontalSpring:  attachmentPt - anchor (-3.42149580318 -0.00723510297038 0.000331417707628) spring length 3.4215034689 force (0.0177202378107 3.74712560224e-05 -1.71644243679e-06)
6-DoF rigid body motion
    Centre of rotation: (0.578530191882 0.492778988121 0.500328499653)
    Centre of mass: (0.578530191882 0.492778988121 0.500328499653)
    Orientation: (0.999999978408 -7.68411427748e-05 -0.00019307932626 7.68493390718e-05 0.999999996146 4.24433517434e-05 0.00019307606412 -4.24581888456e-05 0.999999980459)
    Linear velocity: (0.00128211557201 0.00070695106155 -0.000150491572294)
    Angular velocity: (-2.80194108973e-06 -0.000274365497522 -0.00017627978692)
Execution time for mesh.update() = 0.04 s
GAMGPCG:  Solving for pcorr, Initial residual = 1, Final residual = 1.47606279099e-06, No Iterations 5
time step continuity errors : sum local = 2.30988549003e-12, global = -2.4050942243e-13, cumulative = -0.00316952495161
smoothSolver:  Solving for alpha.water, Initial residual = 5.51470183443e-06, Final residual = 1.08351566877e-09, No Iterations 1
Phase-1 volume fraction = 0.499999805803  Min(alpha.water) = 0  Max(alpha.water) = 1.00000340568
Applying the previous iteration compression flux
MULES: Correcting alpha.water
MULES: Correcting alpha.water
MULES: Correcting alpha.water
Phase-1 volume fraction = 0.499999805803  Min(alpha.water) = -1.35359068838e-11  Max(alpha.water) = 1.00000340568
GAMG:  Solving for p_rgh, Initial residual = 1.46134316653e-05, Final residual = 4.5411932569e-08, No Iterations 2
time step continuity errors : sum local = 1.66993435347e-06, global = -4.26022243113e-07, cumulative = -0.00316995097386
PIMPLE: iteration 2

Restraint horizontalSpring:  attachmentPt - anchor (-3.42146980812 -0.00722101187914 0.000328499652924) spring length 3.42147744385 force (0.0177181559663 3.73941673856e-05 -1.70114261175e-06)
6-DoF rigid body motion
    Centre of rotation: (0.578530191732 0.492778987833 0.500328467793)
    Centre of mass: (0.578530191732 0.492778987833 0.500328467793)
    Orientation: (0.9999999784 -7.68392478898e-05 -0.000193123187096 7.68474445595e-05 0.999999996147 4.24356391038e-05 0.000193119925629 -4.24504792105e-05 0.999999980451)
    Linear velocity: (0.0012821005677 0.00070692223949 -0.000153677520923)
    Angular velocity: (-2.03063560681e-06 -0.000278751588378 -0.000176469089358)
Execution time for mesh.update() = 0.06 s
GAMGPCG:  Solving for pcorr, Initial residual = 1, Final residual = 5.28784883032e-06, No Iterations 5
time step continuity errors : sum local = 1.57746136304e-11, global = -6.82521750311e-12, cumulative = -0.00316995098068
smoothSolver:  Solving for alpha.water, Initial residual = 4.92205219638e-06, Final residual = 1.07406793525e-09, No Iterations 1
Phase-1 volume fraction = 0.499999805828  Min(alpha.water) = 0  Max(alpha.water) = 1.00000340567
Applying the previous iteration compression flux
MULES: Correcting alpha.water
MULES: Correcting alpha.water
MULES: Correcting alpha.water
Phase-1 volume fraction = 0.499999805828  Min(alpha.water) = -1.39725395233e-11  Max(alpha.water) = 1.00000340567
GAMG:  Solving for p_rgh, Initial residual = 2.80464162817e-07, Final residual = 8.05266452831e-09, No Iterations 2
time step continuity errors : sum local = 2.96116114989e-07, global = -2.57042774573e-07, cumulative = -0.00317020802346
PIMPLE: iteration 3

Restraint horizontalSpring:  attachmentPt - anchor (-3.42146980827 -0.00722101216736 0.000328467793438) spring length 3.421477444 force (0.0177181559782 3.73941689014e-05 -1.70097762777e-06)
6-DoF rigid body motion
    Centre of rotation: (0.578530193505 0.492778987968 0.500328514855)
    Centre of mass: (0.578530193505 0.492778987968 0.500328514855)
    Orientation: (0.999999978413 -7.68397489921e-05 -0.000193055640314 7.68479439502e-05 0.999999996147 4.24416255928e-05 0.000193052378366 -4.24564606056e-05 0.999999980464)
    Linear velocity: (0.0012822778817 0.000706935798232 -0.000148971351605)
    Angular velocity: (-2.62930142536e-06 -0.000271996908633 -0.000176419265768)
Execution time for mesh.update() = 0.04 s
GAMGPCG:  Solving for pcorr, Initial residual = 1, Final residual = 3.08650222578e-06, No Iterations 6
time step continuity errors : sum local = 5.01259728854e-12, global = -3.14135187891e-12, cumulative = -0.0031702080266
smoothSolver:  Solving for alpha.water, Initial residual = 4.91867863966e-06, Final residual = 1.07000959012e-09, No Iterations 1
Phase-1 volume fraction = 0.499999805832  Min(alpha.water) = 0  Max(alpha.water) = 1.00000340567
Applying the previous iteration compression flux
MULES: Correcting alpha.water
MULES: Correcting alpha.water
MULES: Correcting alpha.water
Phase-1 volume fraction = 0.499999805832  Min(alpha.water) = -1.35129651871e-11  Max(alpha.water) = 1.00000340567
GAMGPCG:  Solving for p_rgh, Initial residual = 8.31522210413e-08, Final residual = 4.14706996414e-09, No Iterations 1
time step continuity errors : sum local = 1.52499126328e-07, global = -4.14698108489e-08, cumulative = -0.00317024949641
smoothSolver:  Solving for epsilon, Initial residual = 0.000286969346234, Final residual = 7.010901421e-07, No Iterations 2
smoothSolver:  Solving for k, Initial residual = 0.000488135926709, Final residual = 8.89676214314e-08, No Iterations 3
ExecutionTime = 268.26 s  ClockTime = 271 s

End

