/*---------------------------------------------------------------------------*\
| =========                 |                                                 |
| \\      /  F ield         | OpenFOAM: The Open Source CFD Toolbox           |
|  \\    /   O peration     | Version:  3.0.1                                 |
|   \\  /    A nd           | Web:      www.OpenFOAM.org                      |
|    \\/     M anipulation  |                                                 |
\*---------------------------------------------------------------------------*/
Build  : 3.0.1-d8a290b55d28
Exec   : interFoam
Date   : May 20 2016
Time   : 15:14:07
Host   : "evankielley-VirtualBox"
PID    : 3151
Case   : /home/evankielley/OpenFOAM/evankielley-3.0.1/run/tutorials/multiphase/interFoam/laminar/capillaryRise
nProcs : 1
sigFpe : Enabling floating point exception trapping (FOAM_SIGFPE).
fileModificationChecking : Monitoring run-time modified files using timeStampMaster
allowSystemOperations : Allowing user-supplied system call operations

// * * * * * * * * * * * * * * * * * * * * * * * * * * * * * * * * * * * * * //
Create time

Create mesh for time = 0


PIMPLE: Operating solver in PISO mode

Reading field p_rgh

Reading field U

Reading/calculating face flux field phi

Reading transportProperties

Selecting incompressible transport model Newtonian
Selecting incompressible transport model Newtonian
Selecting turbulence model type laminar

Reading g

Reading hRef
Calculating field g.h

No MRF models present

No finite volume options present

DICPCG:  Solving for pcorr, Initial residual = 0, Final residual = 0, No Iterations 0
time step continuity errors : sum local = 0, global = 0, cumulative = 0
Courant Number mean: 0 max: 0

Starting time loop

Courant Number mean: 0 max: 0
Interface Courant Number mean: 0 max: 0
deltaT = 1.1999e-05
Time = 1.1999e-05

PIMPLE: iteration 1
MULES: Solving for alpha.water
Phase-1 volume fraction = 0.4  Min(alpha.water) = 0  Max(alpha.water) = 1
MULES: Solving for alpha.water
Phase-1 volume fraction = 0.4  Min(alpha.water) = 0  Max(alpha.water) = 1
DICPCG:  Solving for p_rgh, Initial residual = 1, Final residual = 0.00961619, No Iterations 1
time step continuity errors : sum local = 4.68216e-05, global = -3.61867e-22, cumulative = -3.61867e-22
DICPCG:  Solving for p_rgh, Initial residual = 0.00525851, Final residual = 0.000259992, No Iterations 19
time step continuity errors : sum local = 2.56506e-06, global = -4.94795e-22, cumulative = -8.56663e-22
DICPCG:  Solving for p_rgh, Initial residual = 0.000674102, Final residual = 8.25971e-08, No Iterations 175
time step continuity errors : sum local = 8.64511e-10, global = 1.01944e-11, cumulative = 1.01944e-11
ExecutionTime = 0.17 s  ClockTime = 1 s

Courant Number mean: 0.000188511 max: 0.0642683
Interface Courant Number mean: 0 max: 0
deltaT = 1.43975e-05
Time = 2.63965e-05

PIMPLE: iteration 1
MULES: Solving for alpha.water
Phase-1 volume fraction = 0.4  Min(alpha.water) = 0  Max(alpha.water) = 1
MULES: Solving for alpha.water
Phase-1 volume fraction = 0.4  Min(alpha.water) = 0  Max(alpha.water) = 1
DICPCG:  Solving for p_rgh, Initial residual = 0.103533, Final residual = 0.00465497, No Iterations 1
time step continuity errors : sum local = 5.32422e-05, global = -1.26085e-09, cumulative = -1.25066e-09
DICPCG:  Solving for p_rgh, Initial residual = 0.0053232, Final residual = 0.000220976, No Iterations 66
time step continuity errors : sum local = 2.6187e-06, global = 2.18785e-08, cumulative = 2.06279e-08
DICPCG:  Solving for p_rgh, Initial residual = 0.000906293, Final residual = 9.66578e-08, No Iterations 175
time step continuity errors : sum local = 8.90782e-10, global = 8.07466e-12, cumulative = 2.06359e-08
ExecutionTime = 0.26 s  ClockTime = 1 s

Courant Number mean: 0.000427268 max: 0.117623
Interface Courant Number mean: 5.87699e-05 max: 0.117623
deltaT = 1.68431e-05
Time = 4.32396e-05

PIMPLE: iteration 1
MULES: Solving for alpha.water
Phase-1 volume fraction = 0.4  Min(alpha.water) = 0  Max(alpha.water) = 1
MULES: Solving for alpha.water
Phase-1 volume fraction = 0.4  Min(alpha.water) = 0  Max(alpha.water) = 1
DICPCG:  Solving for p_rgh, Initial residual = 0.129549, Final residual = 0.001935, No Iterations 2
time step continuity errors : sum local = 2.30262e-05, global = -1.18945e-08, cumulative = 8.74144e-09
DICPCG:  Solving for p_rgh, Initial residual = 0.00241609, Final residual = 0.000116151, No Iterations 66
time step continuity errors : sum local = 1.4923e-06, global = 1.02785e-09, cumulative = 9.76929e-09
DICPCG:  Solving for p_rgh, Initial residual = 0.000513859, Final residual = 9.78294e-08, No Iterations 107
time step continuity errors : sum local = 1.19749e-09, global = -2.06061e-10, cumulative = 9.56323e-09
ExecutionTime = 0.34 s  ClockTime = 1 s

Courant Number mean: 0.00060666 max: 0.15074
Interface Courant Number mean: 8.66601e-05 max: 0.15074
deltaT = 1.90747e-05
Time = 6.23144e-05

PIMPLE: iteration 1
MULES: Solving for alpha.water
Phase-1 volume fraction = 0.4  Min(alpha.water) = 0  Max(alpha.water) = 1
MULES: Solving for alpha.water
Phase-1 volume fraction = 0.4  Min(alpha.water) = 0  Max(alpha.water) = 1
DICPCG:  Solving for p_rgh, Initial residual = 0.0971005, Final residual = 0.00283132, No Iterations 1
time step continuity errors : sum local = 3.78822e-05, global = -6.50429e-10, cumulative = 8.9128e-09
DICPCG:  Solving for p_rgh, Initial residual = 0.0035665, Final residual = 0.000126324, No Iterations 4
time step continuity errors : sum local = 1.80534e-06, global = -2.16786e-09, cumulative = 6.74494e-09
DICPCG:  Solving for p_rgh, Initial residual = 0.00039586, Final residual = 9.7443e-08, No Iterations 176
time step continuity errors : sum local = 1.39123e-09, global = 1.34827e-11, cumulative = 6.75842e-09
ExecutionTime = 0.41 s  ClockTime = 1 s

Courant Number mean: 0.000887302 max: 0.228447
Interface Courant Number mean: 0.000134787 max: 0.209173
deltaT = 1.6696e-05
Time = 7.90104e-05

PIMPLE: iteration 1
MULES: Solving for alpha.water
Phase-1 volume fraction = 0.4  Min(alpha.water) = 0  Max(alpha.water) = 1
MULES: Solving for alpha.water
Phase-1 volume fraction = 0.4  Min(alpha.water) = 0  Max(alpha.water) = 1
DICPCG:  Solving for p_rgh, Initial residual = 0.104978, Final residual = 0.0037927, No Iterations 1
time step continuity errors : sum local = 3.99215e-05, global = 1.63796e-09, cumulative = 8.39638e-09
DICPCG:  Solving for p_rgh, Initial residual = 0.00479787, Final residual = 0.000224411, No Iterations 6
time step continuity errors : sum local = 2.35786e-06, global = 1.75192e-09, cumulative = 1.01483e-08
DICPCG:  Solving for p_rgh, Initial residual = 0.000790834, Final residual = 7.94272e-08, No Iterations 177
time step continuity errors : sum local = 8.33972e-10, global = 3.32838e-12, cumulative = 1.01516e-08
ExecutionTime = 0.49 s  ClockTime = 1 s

Courant Number mean: 0.000925739 max: 0.176438
Interface Courant Number mean: 0.000171613 max: 0.176438
deltaT = 1.85856e-05
Time = 9.7596e-05

PIMPLE: iteration 1
MULES: Solving for alpha.water
Phase-1 volume fraction = 0.4  Min(alpha.water) = 0  Max(alpha.water) = 1
MULES: Solving for alpha.water
Phase-1 volume fraction = 0.4  Min(alpha.water) = 0  Max(alpha.water) = 1
DICPCG:  Solving for p_rgh, Initial residual = 0.121706, Final residual = 0.00481723, No Iterations 1
time step continuity errors : sum local = 5.97733e-05, global = 1.01353e-10, cumulative = 1.0253e-08
DICPCG:  Solving for p_rgh, Initial residual = 0.00542671, Final residual = 0.000266934, No Iterations 9
time step continuity errors : sum local = 3.531e-06, global = -7.91254e-10, cumulative = 9.46173e-09
DICPCG:  Solving for p_rgh, Initial residual = 0.000799085, Final residual = 7.77843e-08, No Iterations 176
time step continuity errors : sum local = 1.03371e-09, global = -6.45506e-12, cumulative = 9.45528e-09
ExecutionTime = 0.56 s  ClockTime = 1 s

Courant Number mean: 0.00115764 max: 0.141756
Interface Courant Number mean: 0.000186931 max: 0.141756
deltaT = 2.1199e-05
Time = 0.000118795

PIMPLE: iteration 1
MULES: Solving for alpha.water
Phase-1 volume fraction = 0.4  Min(alpha.water) = 0  Max(alpha.water) = 1
MULES: Solving for alpha.water
Phase-1 volume fraction = 0.4  Min(alpha.water) = 0  Max(alpha.water) = 1
DICPCG:  Solving for p_rgh, Initial residual = 0.102889, Final residual = 0.00414068, No Iterations 1
time step continuity errors : sum local = 5.8801e-05, global = 2.02571e-09, cumulative = 1.1481e-08
DICPCG:  Solving for p_rgh, Initial residual = 0.00502975, Final residual = 0.000247406, No Iterations 18
time step continuity errors : sum local = 3.63418e-06, global = -1.22618e-09, cumulative = 1.02548e-08
DICPCG:  Solving for p_rgh, Initial residual = 0.000758814, Final residual = 8.94396e-08, No Iterations 176
time step continuity errors : sum local = 1.34115e-09, global = -2.36721e-12, cumulative = 1.02524e-08
ExecutionTime = 0.65 s  ClockTime = 1 s

Courant Number mean: 0.00156941 max: 0.18468
Interface Courant Number mean: 0.00027286 max: 0.18468
deltaT = 2.2955e-05
Time = 0.00014175

PIMPLE: iteration 1
MULES: Solving for alpha.water
Phase-1 volume fraction = 0.4  Min(alpha.water) = 0  Max(alpha.water) = 1
MULES: Solving for alpha.water
Phase-1 volume fraction = 0.4  Min(alpha.water) = 0  Max(alpha.water) = 1
DICPCG:  Solving for p_rgh, Initial residual = 0.122747, Final residual = 0.00578029, No Iterations 1
time step continuity errors : sum local = 9.70542e-05, global = 6.37931e-09, cumulative = 1.66318e-08
DICPCG:  Solving for p_rgh, Initial residual = 0.00747976, Final residual = 0.000355645, No Iterations 9
time step continuity errors : sum local = 6.10242e-06, global = -1.00767e-09, cumulative = 1.56241e-08
DICPCG:  Solving for p_rgh, Initial residual = 0.00119776, Final residual = 9.53143e-08, No Iterations 176
time step continuity errors : sum local = 1.63904e-09, global = -1.12673e-11, cumulative = 1.56128e-08
ExecutionTime = 0.73 s  ClockTime = 1 s

Courant Number mean: 0.00232554 max: 0.406905
Interface Courant Number mean: 0.000430137 max: 0.406905
deltaT = 1.12827e-05
Time = 0.000153033

PIMPLE: iteration 1
MULES: Solving for alpha.water
Phase-1 volume fraction = 0.4  Min(alpha.water) = 0  Max(alpha.water) = 1
MULES: Solving for alpha.water
Phase-1 volume fraction = 0.4  Min(alpha.water) = 0  Max(alpha.water) = 1
DICPCG:  Solving for p_rgh, Initial residual = 0.0613906, Final residual = 0.00251599, No Iterations 1
time step continuity errors : sum local = 1.71809e-05, global = 1.40941e-09, cumulative = 1.70222e-08
DICPCG:  Solving for p_rgh, Initial residual = 0.00287935, Final residual = 0.000142918, No Iterations 20
time step continuity errors : sum local = 1.00596e-06, global = -3.399e-10, cumulative = 1.66823e-08
DICPCG:  Solving for p_rgh, Initial residual = 0.000315513, Final residual = 8.2986e-08, No Iterations 172
time step continuity errors : sum local = 5.91183e-10, global = 1.68914e-12, cumulative = 1.6684e-08
ExecutionTime = 0.8 s  ClockTime = 1 s

Courant Number mean: 0.00124489 max: 0.216552
Interface Courant Number mean: 0.000215841 max: 0.216552
deltaT = 1.04195e-05
Time = 0.000163452

PIMPLE: iteration 1
MULES: Solving for alpha.water
Phase-1 volume fraction = 0.4  Min(alpha.water) = 0  Max(alpha.water) = 1
MULES: Solving for alpha.water
Phase-1 volume fraction = 0.4  Min(alpha.water) = 0  Max(alpha.water) = 1
DICPCG:  Solving for p_rgh, Initial residual = 0.0496751, Final residual = 0.00161641, No Iterations 1
time step continuity errors : sum local = 1.06939e-05, global = 1.71386e-09, cumulative = 1.83979e-08
DICPCG:  Solving for p_rgh, Initial residual = 0.00185429, Final residual = 8.58532e-05, No Iterations 5
time step continuity errors : sum local = 5.77276e-07, global = -1.58719e-11, cumulative = 1.8382e-08
DICPCG:  Solving for p_rgh, Initial residual = 0.000189677, Final residual = 9.8369e-08, No Iterations 174
time step continuity errors : sum local = 6.61627e-10, global = -9.25834e-12, cumulative = 1.83728e-08
ExecutionTime = 0.87 s  ClockTime = 1 s

Courant Number mean: 0.00123978 max: 0.202685
Interface Courant Number mean: 0.000208108 max: 0.202685
deltaT = 1.02798e-05
Time = 0.000173732

PIMPLE: iteration 1
MULES: Solving for alpha.water
Phase-1 volume fraction = 0.4  Min(alpha.water) = 0  Max(alpha.water) = 1
MULES: Solving for alpha.water
Phase-1 volume fraction = 0.4  Min(alpha.water) = 0  Max(alpha.water) = 1
DICPCG:  Solving for p_rgh, Initial residual = 0.0517843, Final residual = 0.00237743, No Iterations 1
time step continuity errors : sum local = 1.49273e-05, global = 2.05937e-09, cumulative = 2.04321e-08
DICPCG:  Solving for p_rgh, Initial residual = 0.00286653, Final residual = 0.00012999, No Iterations 6
time step continuity errors : sum local = 8.28767e-07, global = 4.19048e-10, cumulative = 2.08512e-08
DICPCG:  Solving for p_rgh, Initial residual = 0.000311411, Final residual = 7.34659e-08, No Iterations 176
time step continuity errors : sum local = 4.68158e-10, global = 6.08303e-12, cumulative = 2.08572e-08
ExecutionTime = 0.95 s  ClockTime = 1 s

Courant Number mean: 0.00124127 max: 0.167805
Interface Courant Number mean: 0.000203414 max: 0.167805
deltaT = 1.15046e-05
Time = 0.000185237

PIMPLE: iteration 1
MULES: Solving for alpha.water
Phase-1 volume fraction = 0.4  Min(alpha.water) = 0  Max(alpha.water) = 1
MULES: Solving for alpha.water
Phase-1 volume fraction = 0.4  Min(alpha.water) = 0  Max(alpha.water) = 1
DICPCG:  Solving for p_rgh, Initial residual = 0.0536104, Final residual = 0.00155874, No Iterations 1
time step continuity errors : sum local = 1.11575e-05, global = 2.79377e-09, cumulative = 2.3651e-08
DICPCG:  Solving for p_rgh, Initial residual = 0.00203506, Final residual = 9.85606e-05, No Iterations 18
time step continuity errors : sum local = 7.11134e-07, global = 6.88612e-10, cumulative = 2.43396e-08
DICPCG:  Solving for p_rgh, Initial residual = 0.000226893, Final residual = 9.45137e-08, No Iterations 172
time step continuity errors : sum local = 6.76732e-10, global = -1.58856e-13, cumulative = 2.43395e-08
ExecutionTime = 1.03 s  ClockTime = 1 s

Courant Number mean: 0.00140451 max: 0.170177
Interface Courant Number mean: 0.000208881 max: 0.170177
deltaT = 1.28554e-05
Time = 0.000198092

PIMPLE: iteration 1
MULES: Solving for alpha.water
Phase-1 volume fraction = 0.4  Min(alpha.water) = 0  Max(alpha.water) = 1
MULES: Solving for alpha.water
Phase-1 volume fraction = 0.4  Min(alpha.water) = 0  Max(alpha.water) = 1
DICPCG:  Solving for p_rgh, Initial residual = 0.0587125, Final residual = 0.00138969, No Iterations 1
time step continuity errors : sum local = 1.11991e-05, global = 3.45767e-09, cumulative = 2.77971e-08
DICPCG:  Solving for p_rgh, Initial residual = 0.00185912, Final residual = 8.08881e-05, No Iterations 4
time step continuity errors : sum local = 6.61778e-07, global = 1.24447e-09, cumulative = 2.90416e-08
DICPCG:  Solving for p_rgh, Initial residual = 0.000185432, Final residual = 7.77008e-08, No Iterations 175
time step continuity errors : sum local = 6.35794e-10, global = 3.25886e-12, cumulative = 2.90449e-08
ExecutionTime = 1.11 s  ClockTime = 2 s

Courant Number mean: 0.00158172 max: 0.192029
Interface Courant Number mean: 0.000230423 max: 0.192029
deltaT = 1.33876e-05
Time = 0.00021148

PIMPLE: iteration 1
MULES: Solving for alpha.water
Phase-1 volume fraction = 0.4  Min(alpha.water) = 0  Max(alpha.water) = 1
MULES: Solving for alpha.water
Phase-1 volume fraction = 0.4  Min(alpha.water) = 0  Max(alpha.water) = 1
DICPCG:  Solving for p_rgh, Initial residual = 0.0582412, Final residual = 0.00131563, No Iterations 1
time step continuity errors : sum local = 1.13164e-05, global = 3.14955e-09, cumulative = 3.21944e-08
DICPCG:  Solving for p_rgh, Initial residual = 0.00176414, Final residual = 7.28749e-05, No Iterations 4
time step continuity errors : sum local = 6.36702e-07, global = 6.58951e-10, cumulative = 3.28534e-08
DICPCG:  Solving for p_rgh, Initial residual = 0.000163495, Final residual = 8.83164e-08, No Iterations 173
time step continuity errors : sum local = 7.71364e-10, global = 8.26975e-12, cumulative = 3.28616e-08
ExecutionTime = 1.18 s  ClockTime = 2 s

Courant Number mean: 0.00165882 max: 0.194644
Interface Courant Number mean: 0.000234385 max: 0.194644
deltaT = 1.37537e-05
Time = 0.000225233

PIMPLE: iteration 1
MULES: Solving for alpha.water
Phase-1 volume fraction = 0.4  Min(alpha.water) = 0  Max(alpha.water) = 1
MULES: Solving for alpha.water
Phase-1 volume fraction = 0.4  Min(alpha.water) = 0  Max(alpha.water) = 1
DICPCG:  Solving for p_rgh, Initial residual = 0.0548644, Final residual = 0.00130047, No Iterations 1
time step continuity errors : sum local = 1.16413e-05, global = 3.43001e-09, cumulative = 3.62917e-08
DICPCG:  Solving for p_rgh, Initial residual = 0.0017689, Final residual = 7.71699e-05, No Iterations 3
time step continuity errors : sum local = 6.94418e-07, global = 9.23443e-10, cumulative = 3.72151e-08
DICPCG:  Solving for p_rgh, Initial residual = 0.000160628, Final residual = 8.03902e-08, No Iterations 172
time step continuity errors : sum local = 7.23333e-10, global = -1.65911e-11, cumulative = 3.71985e-08
ExecutionTime = 1.26 s  ClockTime = 2 s

Courant Number mean: 0.00170859 max: 0.189075
Interface Courant Number mean: 0.000212896 max: 0.189075
deltaT = 1.45455e-05
Time = 0.000239779

PIMPLE: iteration 1
MULES: Solving for alpha.water
Phase-1 volume fraction = 0.4  Min(alpha.water) = 0  Max(alpha.water) = 1
MULES: Solving for alpha.water
Phase-1 volume fraction = 0.4  Min(alpha.water) = 0  Max(alpha.water) = 1.00192
DICPCG:  Solving for p_rgh, Initial residual = 0.0477143, Final residual = 0.00134996, No Iterations 1
time step continuity errors : sum local = 1.29813e-05, global = 3.71555e-09, cumulative = 4.09141e-08
DICPCG:  Solving for p_rgh, Initial residual = 0.0018751, Final residual = 8.63809e-05, No Iterations 8
time step continuity errors : sum local = 8.28998e-07, global = 7.58657e-10, cumulative = 4.16727e-08
DICPCG:  Solving for p_rgh, Initial residual = 0.000211921, Final residual = 8.68457e-08, No Iterations 169
time step continuity errors : sum local = 8.31359e-10, global = 3.32233e-13, cumulative = 4.1673e-08
ExecutionTime = 1.33 s  ClockTime = 2 s

Courant Number mean: 0.00183286 max: 0.201367
Interface Courant Number mean: 0.000219077 max: 0.179334
deltaT = 1.44442e-05
Time = 0.000254223

PIMPLE: iteration 1
MULES: Solving for alpha.water
Phase-1 volume fraction = 0.4  Min(alpha.water) = 0  Max(alpha.water) = 1.00192
MULES: Solving for alpha.water
Phase-1 volume fraction = 0.399999  Min(alpha.water) = 0  Max(alpha.water) = 1.00192
DICPCG:  Solving for p_rgh, Initial residual = 0.0458895, Final residual = 0.00157814, No Iterations 1
time step continuity errors : sum local = 1.3838e-05, global = 3.78322e-09, cumulative = 4.54563e-08
DICPCG:  Solving for p_rgh, Initial residual = 0.00213692, Final residual = 8.00309e-05, No Iterations 5
time step continuity errors : sum local = 6.90073e-07, global = 1.34304e-09, cumulative = 4.67993e-08
DICPCG:  Solving for p_rgh, Initial residual = 0.000262448, Final residual = 6.70373e-08, No Iterations 174
time step continuity errors : sum local = 5.77692e-10, global = -4.42204e-12, cumulative = 4.67949e-08
ExecutionTime = 1.41 s  ClockTime = 2 s

Courant Number mean: 0.00184679 max: 0.213693
Interface Courant Number mean: 0.000265455 max: 0.147404
deltaT = 1.35179e-05
Time = 0.000267741

PIMPLE: iteration 1
MULES: Solving for alpha.water
Phase-1 volume fraction = 0.399999  Min(alpha.water) = 0  Max(alpha.water) = 1.00192
MULES: Solving for alpha.water
Phase-1 volume fraction = 0.399999  Min(alpha.water) = 0  Max(alpha.water) = 1.00192
DICPCG:  Solving for p_rgh, Initial residual = 0.0470317, Final residual = 0.00156224, No Iterations 1
time step continuity errors : sum local = 1.14761e-05, global = 2.58229e-09, cumulative = 4.93772e-08
DICPCG:  Solving for p_rgh, Initial residual = 0.00203492, Final residual = 7.69082e-05, No Iterations 5
time step continuity errors : sum local = 5.60147e-07, global = 5.87644e-10, cumulative = 4.99648e-08
DICPCG:  Solving for p_rgh, Initial residual = 0.000258672, Final residual = 8.71723e-08, No Iterations 138
time step continuity errors : sum local = 6.34965e-10, global = 6.53029e-11, cumulative = 5.00301e-08
ExecutionTime = 1.47 s  ClockTime = 2 s

Courant Number mean: 0.00175758 max: 0.20378
Interface Courant Number mean: 0.000264645 max: 0.10799
deltaT = 1.32655e-05
Time = 0.000281006

PIMPLE: iteration 1
MULES: Solving for alpha.water
Phase-1 volume fraction = 0.399999  Min(alpha.water) = 0  Max(alpha.water) = 1.00192
MULES: Solving for alpha.water
Phase-1 volume fraction = 0.399999  Min(alpha.water) = 0  Max(alpha.water) = 1.00192
DICPCG:  Solving for p_rgh, Initial residual = 0.0453495, Final residual = 0.00155968, No Iterations 1
time step continuity errors : sum local = 1.04423e-05, global = 2.5354e-09, cumulative = 5.25655e-08
DICPCG:  Solving for p_rgh, Initial residual = 0.00210301, Final residual = 0.000101268, No Iterations 5
time step continuity errors : sum local = 6.70263e-07, global = 7.83669e-10, cumulative = 5.33492e-08
DICPCG:  Solving for p_rgh, Initial residual = 0.000276324, Final residual = 9.39268e-08, No Iterations 171
time step continuity errors : sum local = 6.22106e-10, global = -4.49313e-12, cumulative = 5.33447e-08
ExecutionTime = 1.55 s  ClockTime = 2 s

Courant Number mean: 0.00178827 max: 0.193064
Interface Courant Number mean: 0.000267621 max: 0.112881
deltaT = 1.37383e-05
Time = 0.000294745

PIMPLE: iteration 1
MULES: Solving for alpha.water
Phase-1 volume fraction = 0.399999  Min(alpha.water) = 0  Max(alpha.water) = 1.00192
MULES: Solving for alpha.water
Phase-1 volume fraction = 0.399999  Min(alpha.water) = 0  Max(alpha.water) = 1.00192
DICPCG:  Solving for p_rgh, Initial residual = 0.0471674, Final residual = 0.00168473, No Iterations 1
time step continuity errors : sum local = 1.1322e-05, global = 2.36952e-09, cumulative = 5.57142e-08
DICPCG:  Solving for p_rgh, Initial residual = 0.00229799, Final residual = 0.000111525, No Iterations 8
time step continuity errors : sum local = 7.38112e-07, global = 3.24202e-10, cumulative = 5.60384e-08
DICPCG:  Solving for p_rgh, Initial residual = 0.000261988, Final residual = 6.91559e-08, No Iterations 174
time step continuity errors : sum local = 4.58591e-10, global = 1.82582e-13, cumulative = 5.60386e-08
ExecutionTime = 1.63 s  ClockTime = 2 s

Courant Number mean: 0.00193166 max: 0.1909
Interface Courant Number mean: 0.000287117 max: 0.128659
deltaT = 1.43906e-05
Time = 0.000309135

PIMPLE: iteration 1
MULES: Solving for alpha.water
Phase-1 volume fraction = 0.399999  Min(alpha.water) = 0  Max(alpha.water) = 1.00192
MULES: Solving for alpha.water
Phase-1 volume fraction = 0.399999  Min(alpha.water) = 0  Max(alpha.water) = 1.00192
DICPCG:  Solving for p_rgh, Initial residual = 0.0575038, Final residual = 0.002307, No Iterations 1
time step continuity errors : sum local = 1.62971e-05, global = 3.00285e-09, cumulative = 5.90415e-08
DICPCG:  Solving for p_rgh, Initial residual = 0.00295558, Final residual = 0.000146656, No Iterations 10
time step continuity errors : sum local = 1.01931e-06, global = 3.94039e-10, cumulative = 5.94355e-08
DICPCG:  Solving for p_rgh, Initial residual = 0.000342633, Final residual = 9.78143e-08, No Iterations 172
time step continuity errors : sum local = 6.82054e-10, global = -1.11401e-12, cumulative = 5.94344e-08
ExecutionTime = 1.7 s  ClockTime = 2 s

Courant Number mean: 0.00213991 max: 0.197266
Interface Courant Number mean: 0.000316499 max: 0.164934
deltaT = 1.45892e-05
Time = 0.000323725

PIMPLE: iteration 1
MULES: Solving for alpha.water
Phase-1 volume fraction = 0.399999  Min(alpha.water) = 0  Max(alpha.water) = 1.00192
MULES: Solving for alpha.water
Phase-1 volume fraction = 0.399999  Min(alpha.water) = 0  Max(alpha.water) = 1.00192
DICPCG:  Solving for p_rgh, Initial residual = 0.0619579, Final residual = 0.0025576, No Iterations 1
time step continuity errors : sum local = 1.84683e-05, global = 3.51948e-09, cumulative = 6.29539e-08
DICPCG:  Solving for p_rgh, Initial residual = 0.0033126, Final residual = 0.000164726, No Iterations 6
time step continuity errors : sum local = 1.17228e-06, global = 3.71783e-10, cumulative = 6.33256e-08
DICPCG:  Solving for p_rgh, Initial residual = 0.000364976, Final residual = 8.00308e-08, No Iterations 174
time step continuity errors : sum local = 5.69652e-10, global = -1.44928e-13, cumulative = 6.33255e-08
ExecutionTime = 1.78 s  ClockTime = 2 s

Courant Number mean: 0.00231165 max: 0.256698
Interface Courant Number mean: 0.000377457 max: 0.215991
deltaT = 1.1365e-05
Time = 0.00033509

PIMPLE: iteration 1
MULES: Solving for alpha.water
Phase-1 volume fraction = 0.399998  Min(alpha.water) = 0  Max(alpha.water) = 1.00192
MULES: Solving for alpha.water
Phase-1 volume fraction = 0.399998  Min(alpha.water) = 0  Max(alpha.water) = 1.00192
DICPCG:  Solving for p_rgh, Initial residual = 0.0512136, Final residual = 0.00198248, No Iterations 1
time step continuity errors : sum local = 9.82519e-06, global = 2.00583e-09, cumulative = 6.53313e-08
DICPCG:  Solving for p_rgh, Initial residual = 0.00256233, Final residual = 0.000123621, No Iterations 5
time step continuity errors : sum local = 6.06374e-07, global = 1.89918e-10, cumulative = 6.55213e-08
DICPCG:  Solving for p_rgh, Initial residual = 0.000259793, Final residual = 8.12275e-08, No Iterations 173
time step continuity errors : sum local = 3.98335e-10, global = 8.79072e-13, cumulative = 6.55221e-08
ExecutionTime = 1.86 s  ClockTime = 2 s

Courant Number mean: 0.00188886 max: 0.23809
Interface Courant Number mean: 0.000308074 max: 0.194889
deltaT = 9.54544e-06
Time = 0.000344635

PIMPLE: iteration 1
MULES: Solving for alpha.water
Phase-1 volume fraction = 0.399998  Min(alpha.water) = 0  Max(alpha.water) = 1.00192
MULES: Solving for alpha.water
Phase-1 volume fraction = 0.399998  Min(alpha.water) = 0  Max(alpha.water) = 1.00192
DICPCG:  Solving for p_rgh, Initial residual = 0.0436041, Final residual = 0.00131648, No Iterations 1
time step continuity errors : sum local = 4.9001e-06, global = 1.37824e-09, cumulative = 6.69004e-08
DICPCG:  Solving for p_rgh, Initial residual = 0.0018339, Final residual = 8.55097e-05, No Iterations 9
time step continuity errors : sum local = 3.13173e-07, global = 1.55152e-10, cumulative = 6.70555e-08
DICPCG:  Solving for p_rgh, Initial residual = 0.000173052, Final residual = 7.41865e-08, No Iterations 172
time step continuity errors : sum local = 2.72194e-10, global = -5.34225e-15, cumulative = 6.70555e-08
ExecutionTime = 1.94 s  ClockTime = 2 s

Courant Number mean: 0.00163831 max: 0.218604
Interface Courant Number mean: 0.000278102 max: 0.180567
deltaT = 8.73292e-06
Time = 0.000353368

PIMPLE: iteration 1
MULES: Solving for alpha.water
Phase-1 volume fraction = 0.399998  Min(alpha.water) = 0  Max(alpha.water) = 1.00192
MULES: Solving for alpha.water
Phase-1 volume fraction = 0.399998  Min(alpha.water) = 0  Max(alpha.water) = 1.00192
DICPCG:  Solving for p_rgh, Initial residual = 0.0408484, Final residual = 0.00108784, No Iterations 1
time step continuity errors : sum local = 3.45107e-06, global = 1.15162e-09, cumulative = 6.82071e-08
DICPCG:  Solving for p_rgh, Initial residual = 0.00164395, Final residual = 7.1706e-05, No Iterations 4
time step continuity errors : sum local = 2.23538e-07, global = 1.03902e-10, cumulative = 6.8311e-08
DICPCG:  Solving for p_rgh, Initial residual = 0.00014672, Final residual = 9.95788e-08, No Iterations 120
time step continuity errors : sum local = 3.10408e-10, global = -3.93888e-11, cumulative = 6.82717e-08
ExecutionTime = 2 s  ClockTime = 2 s

Courant Number mean: 0.00153915 max: 0.212188
Interface Courant Number mean: 0.000259831 max: 0.178087
deltaT = 8.23054e-06
Time = 0.000361598

PIMPLE: iteration 1
MULES: Solving for alpha.water
Phase-1 volume fraction = 0.399998  Min(alpha.water) = 0  Max(alpha.water) = 1.00192
MULES: Solving for alpha.water
Phase-1 volume fraction = 0.399998  Min(alpha.water) = 0  Max(alpha.water) = 1.00192
DICPCG:  Solving for p_rgh, Initial residual = 0.0383547, Final residual = 0.00101305, No Iterations 1
time step continuity errors : sum local = 2.79213e-06, global = 9.93881e-10, cumulative = 6.92655e-08
DICPCG:  Solving for p_rgh, Initial residual = 0.00149522, Final residual = 7.26321e-05, No Iterations 20
time step continuity errors : sum local = 1.96307e-07, global = 1.22106e-10, cumulative = 6.93876e-08
DICPCG:  Solving for p_rgh, Initial residual = 0.000153554, Final residual = 8.51714e-08, No Iterations 171
time step continuity errors : sum local = 2.32e-10, global = -1.49421e-12, cumulative = 6.93862e-08
ExecutionTime = 2.08 s  ClockTime = 3 s

Courant Number mean: 0.00148055 max: 0.205468
Interface Courant Number mean: 0.000247841 max: 0.17794
deltaT = 8.01136e-06
Time = 0.00036961

PIMPLE: iteration 1
MULES: Solving for alpha.water
Phase-1 volume fraction = 0.399998  Min(alpha.water) = 0  Max(alpha.water) = 1.00192
MULES: Solving for alpha.water
Phase-1 volume fraction = 0.399998  Min(alpha.water) = 0  Max(alpha.water) = 1.00192
DICPCG:  Solving for p_rgh, Initial residual = 0.0355746, Final residual = 0.000979616, No Iterations 1
time step continuity errors : sum local = 2.53639e-06, global = 9.97783e-10, cumulative = 7.03839e-08
DICPCG:  Solving for p_rgh, Initial residual = 0.00143494, Final residual = 7.08357e-05, No Iterations 49
time step continuity errors : sum local = 1.79423e-07, global = 8.90458e-11, cumulative = 7.0473e-08
DICPCG:  Solving for p_rgh, Initial residual = 0.00015823, Final residual = 6.9051e-08, No Iterations 172
time step continuity errors : sum local = 1.8023e-10, global = 6.93574e-13, cumulative = 7.04737e-08
ExecutionTime = 2.16 s  ClockTime = 3 s

Courant Number mean: 0.00146475 max: 0.201382
Interface Courant Number mean: 0.000254439 max: 0.18109
deltaT = 7.95614e-06
Time = 0.000377566

PIMPLE: iteration 1
MULES: Solving for alpha.water
Phase-1 volume fraction = 0.399998  Min(alpha.water) = 0  Max(alpha.water) = 1.00192
MULES: Solving for alpha.water
Phase-1 volume fraction = 0.399998  Min(alpha.water) = 0  Max(alpha.water) = 1.00192
DICPCG:  Solving for p_rgh, Initial residual = 0.0328083, Final residual = 0.00103554, No Iterations 1
time step continuity errors : sum local = 2.64379e-06, global = 1.05839e-09, cumulative = 7.15321e-08
DICPCG:  Solving for p_rgh, Initial residual = 0.00138959, Final residual = 6.67417e-05, No Iterations 25
time step continuity errors : sum local = 1.67131e-07, global = 4.02724e-11, cumulative = 7.15723e-08
DICPCG:  Solving for p_rgh, Initial residual = 0.000148973, Final residual = 9.80088e-08, No Iterations 159
time step continuity errors : sum local = 2.47984e-10, global = -1.31128e-11, cumulative = 7.15592e-08
ExecutionTime = 2.24 s  ClockTime = 3 s

Courant Number mean: 0.00147563 max: 0.199063
Interface Courant Number mean: 0.000290108 max: 0.185448
deltaT = 7.9933e-06
Time = 0.000385559

PIMPLE: iteration 1
MULES: Solving for alpha.water
Phase-1 volume fraction = 0.399998  Min(alpha.water) = 0  Max(alpha.water) = 1.00192
MULES: Solving for alpha.water
Phase-1 volume fraction = 0.399997  Min(alpha.water) = 0  Max(alpha.water) = 1.00192
DICPCG:  Solving for p_rgh, Initial residual = 0.0325552, Final residual = 0.00117559, No Iterations 1
time step continuity errors : sum local = 2.9928e-06, global = 1.19964e-09, cumulative = 7.27589e-08
DICPCG:  Solving for p_rgh, Initial residual = 0.00143912, Final residual = 7.03449e-05, No Iterations 18
time step continuity errors : sum local = 1.75627e-07, global = 1.08989e-10, cumulative = 7.28679e-08
DICPCG:  Solving for p_rgh, Initial residual = 0.000150049, Final residual = 8.17282e-08, No Iterations 171
time step continuity errors : sum local = 2.05347e-10, global = 1.92765e-13, cumulative = 7.2868e-08
ExecutionTime = 2.32 s  ClockTime = 3 s

Courant Number mean: 0.00150054 max: 0.197025
Interface Courant Number mean: 0.00028114 max: 0.189361
deltaT = 8.11356e-06
Time = 0.000393673

PIMPLE: iteration 1
MULES: Solving for alpha.water
Phase-1 volume fraction = 0.399997  Min(alpha.water) = -3.53549e-176  Max(alpha.water) = 1.00192
MULES: Solving for alpha.water
Phase-1 volume fraction = 0.399997  Min(alpha.water) = -7.10815e-176  Max(alpha.water) = 1.00192
DICPCG:  Solving for p_rgh, Initial residual = 0.0331648, Final residual = 0.00133001, No Iterations 1
time step continuity errors : sum local = 3.42006e-06, global = 1.3841e-09, cumulative = 7.42522e-08
DICPCG:  Solving for p_rgh, Initial residual = 0.00159061, Final residual = 7.80254e-05, No Iterations 16
time step continuity errors : sum local = 1.96934e-07, global = 1.74825e-10, cumulative = 7.4427e-08
DICPCG:  Solving for p_rgh, Initial residual = 0.000162166, Final residual = 9.538e-08, No Iterations 171
time step continuity errors : sum local = 2.42213e-10, global = -9.35894e-13, cumulative = 7.4426e-08
ExecutionTime = 2.39 s  ClockTime = 3 s

Courant Number mean: 0.00153809 max: 0.194768
Interface Courant Number mean: 0.000283385 max: 0.192555
deltaT = 8.3302e-06
Time = 0.000402003

PIMPLE: iteration 1
MULES: Solving for alpha.water
Phase-1 volume fraction = 0.399997  Min(alpha.water) = -7.10806e-176  Max(alpha.water) = 1.00192
MULES: Solving for alpha.water
Phase-1 volume fraction = 0.399997  Min(alpha.water) = -7.10798e-176  Max(alpha.water) = 1.00192
DICPCG:  Solving for p_rgh, Initial residual = 0.0335789, Final residual = 0.0015119, No Iterations 1
time step continuity errors : sum local = 4.01695e-06, global = 1.55643e-09, cumulative = 7.59825e-08
DICPCG:  Solving for p_rgh, Initial residual = 0.00178611, Final residual = 8.8167e-05, No Iterations 13
time step continuity errors : sum local = 2.30022e-07, global = 1.86279e-10, cumulative = 7.61687e-08
DICPCG:  Solving for p_rgh, Initial residual = 0.000181769, Final residual = 8.17291e-08, No Iterations 169
time step continuity errors : sum local = 2.14198e-10, global = -1.34109e-12, cumulative = 7.61674e-08
ExecutionTime = 2.47 s  ClockTime = 3 s

Courant Number mean: 0.00159209 max: 0.195247
Interface Courant Number mean: 0.000288197 max: 0.195247
deltaT = 8.53225e-06
Time = 0.000410535

PIMPLE: iteration 1
MULES: Solving for alpha.water
Phase-1 volume fraction = 0.399997  Min(alpha.water) = -7.10789e-176  Max(alpha.water) = 1.00192
MULES: Solving for alpha.water
Phase-1 volume fraction = 0.399997  Min(alpha.water) = -7.1078e-176  Max(alpha.water) = 1.00192
DICPCG:  Solving for p_rgh, Initial residual = 0.033515, Final residual = 0.000643531, No Iterations 2
time step continuity errors : sum local = 1.75605e-06, global = 1.7343e-09, cumulative = 7.79017e-08
DICPCG:  Solving for p_rgh, Initial residual = 0.00103058, Final residual = 5.14235e-05, No Iterations 29
time step continuity errors : sum local = 1.3807e-07, global = 2.32746e-10, cumulative = 7.81345e-08
DICPCG:  Solving for p_rgh, Initial residual = 0.000118869, Final residual = 9.98053e-08, No Iterations 169
time step continuity errors : sum local = 2.70138e-10, global = 2.71351e-14, cumulative = 7.81345e-08
ExecutionTime = 2.55 s  ClockTime = 3 s

Courant Number mean: 0.00165132 max: 0.194532
Interface Courant Number mean: 0.000295088 max: 0.194532
deltaT = 8.77069e-06
Time = 0.000419306

PIMPLE: iteration 1
MULES: Solving for alpha.water
Phase-1 volume fraction = 0.399997  Min(alpha.water) = -7.1077e-176  Max(alpha.water) = 1.00192
MULES: Solving for alpha.water
Phase-1 volume fraction = 0.399997  Min(alpha.water) = -7.1076e-176  Max(alpha.water) = 1.00192
DICPCG:  Solving for p_rgh, Initial residual = 0.0354964, Final residual = 0.00066969, No Iterations 2
time step continuity errors : sum local = 1.88011e-06, global = 1.9646e-09, cumulative = 8.00991e-08
DICPCG:  Solving for p_rgh, Initial residual = 0.00109525, Final residual = 5.13473e-05, No Iterations 14
time step continuity errors : sum local = 1.42233e-07, global = 2.76783e-10, cumulative = 8.03759e-08
DICPCG:  Solving for p_rgh, Initial residual = 0.000120335, Final residual = 8.34184e-08, No Iterations 155
time step continuity errors : sum local = 2.31649e-10, global = -9.25919e-12, cumulative = 8.03666e-08
ExecutionTime = 2.63 s  ClockTime = 3 s

Courant Number mean: 0.00172101 max: 0.191521
Interface Courant Number mean: 0.000303309 max: 0.191521
deltaT = 9.15787e-06
Time = 0.000428464

PIMPLE: iteration 1
MULES: Solving for alpha.water
Phase-1 volume fraction = 0.399996  Min(alpha.water) = -7.10749e-176  Max(alpha.water) = 1.00192
MULES: Solving for alpha.water
Phase-1 volume fraction = 0.399996  Min(alpha.water) = -7.10738e-176  Max(alpha.water) = 1.00192
DICPCG:  Solving for p_rgh, Initial residual = 0.0366329, Final residual = 0.000721603, No Iterations 2
time step continuity errors : sum local = 2.12214e-06, global = 2.28555e-09, cumulative = 8.26522e-08
DICPCG:  Solving for p_rgh, Initial residual = 0.00116075, Final residual = 5.02917e-05, No Iterations 6
time step continuity errors : sum local = 1.46591e-07, global = 3.54944e-10, cumulative = 8.30071e-08
DICPCG:  Solving for p_rgh, Initial residual = 0.000115139, Final residual = 8.44205e-08, No Iterations 136
time step continuity errors : sum local = 2.46192e-10, global = 3.45512e-11, cumulative = 8.30416e-08
ExecutionTime = 2.7 s  ClockTime = 3 s

Courant Number mean: 0.00181952 max: 0.188357
Interface Courant Number mean: 0.000316181 max: 0.188357
deltaT = 9.72372e-06
Time = 0.000438188

PIMPLE: iteration 1
MULES: Solving for alpha.water
Phase-1 volume fraction = 0.399996  Min(alpha.water) = -7.10726e-176  Max(alpha.water) = 1.00192
MULES: Solving for alpha.water
Phase-1 volume fraction = 0.399996  Min(alpha.water) = -7.10713e-176  Max(alpha.water) = 1.00192
DICPCG:  Solving for p_rgh, Initial residual = 0.0392799, Final residual = 0.000927424, No Iterations 2
time step continuity errors : sum local = 2.91791e-06, global = 2.86706e-09, cumulative = 8.59087e-08
DICPCG:  Solving for p_rgh, Initial residual = 0.00173464, Final residual = 8.57463e-05, No Iterations 6
time step continuity errors : sum local = 2.68445e-07, global = 5.87697e-10, cumulative = 8.64964e-08
DICPCG:  Solving for p_rgh, Initial residual = 0.000193406, Final residual = 8.10798e-08, No Iterations 155
time step continuity errors : sum local = 2.53832e-10, global = -1.00255e-11, cumulative = 8.64864e-08
ExecutionTime = 2.77 s  ClockTime = 3 s

Courant Number mean: 0.00193819 max: 0.177957
Interface Courant Number mean: 0.000332545 max: 0.177957
deltaT = 1.08143e-05
Time = 0.000449002

PIMPLE: iteration 1
MULES: Solving for alpha.water
Phase-1 volume fraction = 0.399996  Min(alpha.water) = -7.10698e-176  Max(alpha.water) = 1.00192
MULES: Solving for alpha.water
Phase-1 volume fraction = 0.399996  Min(alpha.water) = -7.10683e-176  Max(alpha.water) = 1.00192
DICPCG:  Solving for p_rgh, Initial residual = 0.0468012, Final residual = 0.00114286, No Iterations 2
time step continuity errors : sum local = 4.13342e-06, global = 3.69523e-09, cumulative = 9.01816e-08
DICPCG:  Solving for p_rgh, Initial residual = 0.00241847, Final residual = 9.6293e-05, No Iterations 8
time step continuity errors : sum local = 3.46397e-07, global = 6.70849e-10, cumulative = 9.08525e-08
DICPCG:  Solving for p_rgh, Initial residual = 0.000299499, Final residual = 8.55943e-08, No Iterations 169
time step continuity errors : sum local = 3.07483e-10, global = 1.82489e-12, cumulative = 9.08543e-08
ExecutionTime = 2.84 s  ClockTime = 3 s

Courant Number mean: 0.00213131 max: 0.176434
Interface Courant Number mean: 0.000359367 max: 0.176434
deltaT = 1.20386e-05
Time = 0.00046104

PIMPLE: iteration 1
MULES: Solving for alpha.water
Phase-1 volume fraction = 0.399995  Min(alpha.water) = -7.10664e-176  Max(alpha.water) = 1.00192
MULES: Solving for alpha.water
Phase-1 volume fraction = 0.399995  Min(alpha.water) = -7.10645e-176  Max(alpha.water) = 1.00192
DICPCG:  Solving for p_rgh, Initial residual = 0.0480534, Final residual = 0.0012487, No Iterations 2
time step continuity errors : sum local = 5.22265e-06, global = 5.06793e-09, cumulative = 9.59222e-08
DICPCG:  Solving for p_rgh, Initial residual = 0.00191848, Final residual = 9.10524e-05, No Iterations 18
time step continuity errors : sum local = 3.84337e-07, global = 1.16293e-09, cumulative = 9.70851e-08
DICPCG:  Solving for p_rgh, Initial residual = 0.000245517, Final residual = 9.97605e-08, No Iterations 172
time step continuity errors : sum local = 4.18854e-10, global = 2.56973e-12, cumulative = 9.70877e-08
ExecutionTime = 2.92 s  ClockTime = 3 s

Courant Number mean: 0.00236234 max: 0.200183
Interface Courant Number mean: 0.000379764 max: 0.200183
deltaT = 1.20269e-05
Time = 0.000473067

PIMPLE: iteration 1
MULES: Solving for alpha.water
Phase-1 volume fraction = 0.399995  Min(alpha.water) = -7.10623e-176  Max(alpha.water) = 1.00192
MULES: Solving for alpha.water
Phase-1 volume fraction = 0.399995  Min(alpha.water) = -7.10602e-176  Max(alpha.water) = 1.00192
DICPCG:  Solving for p_rgh, Initial residual = 0.044719, Final residual = 0.00131843, No Iterations 2
time step continuity errors : sum local = 5.29597e-06, global = 4.88083e-09, cumulative = 1.01969e-07
DICPCG:  Solving for p_rgh, Initial residual = 0.00188447, Final residual = 9.37744e-05, No Iterations 26
time step continuity errors : sum local = 3.83109e-07, global = 1.13318e-09, cumulative = 1.03102e-07
DICPCG:  Solving for p_rgh, Initial residual = 0.000267609, Final residual = 8.56511e-08, No Iterations 173
time step continuity errors : sum local = 3.46317e-10, global = 2.00193e-12, cumulative = 1.03104e-07
ExecutionTime = 3 s  ClockTime = 3 s

Courant Number mean: 0.00235207 max: 0.195915
Interface Courant Number mean: 0.000389162 max: 0.195915
deltaT = 1.22774e-05
Time = 0.000485345

PIMPLE: iteration 1
MULES: Solving for alpha.water
Phase-1 volume fraction = 0.399995  Min(alpha.water) = -7.10578e-176  Max(alpha.water) = 1.00192
MULES: Solving for alpha.water
Phase-1 volume fraction = 0.399994  Min(alpha.water) = -7.10554e-176  Max(alpha.water) = 1.00152
DICPCG:  Solving for p_rgh, Initial residual = 0.0313229, Final residual = 0.00117638, No Iterations 2
time step continuity errors : sum local = 4.81956e-06, global = 4.95832e-09, cumulative = 1.08062e-07
DICPCG:  Solving for p_rgh, Initial residual = 0.00175828, Final residual = 8.68727e-05, No Iterations 42
time step continuity errors : sum local = 3.61693e-07, global = 1.21396e-09, cumulative = 1.09276e-07
DICPCG:  Solving for p_rgh, Initial residual = 0.000237238, Final residual = 9.6018e-08, No Iterations 130
time step continuity errors : sum local = 3.90892e-10, global = -1.2357e-12, cumulative = 1.09275e-07
ExecutionTime = 3.07 s  ClockTime = 4 s

Courant Number mean: 0.00240529 max: 0.191166
Interface Courant Number mean: 0.000371222 max: 0.191166
deltaT = 1.28443e-05
Time = 0.000498189

PIMPLE: iteration 1
MULES: Solving for alpha.water
Phase-1 volume fraction = 0.399994  Min(alpha.water) = -7.10527e-176  Max(alpha.water) = 1.00112
MULES: Solving for alpha.water
Phase-1 volume fraction = 0.399994  Min(alpha.water) = -7.10501e-176  Max(alpha.water) = 1.00173
DICPCG:  Solving for p_rgh, Initial residual = 0.0208145, Final residual = 0.000710209, No Iterations 3
time step continuity errors : sum local = 3.06524e-06, global = 5.24587e-09, cumulative = 1.14521e-07
DICPCG:  Solving for p_rgh, Initial residual = 0.00163819, Final residual = 7.8454e-05, No Iterations 62
time step continuity errors : sum local = 3.40953e-07, global = 6.07601e-10, cumulative = 1.15128e-07
DICPCG:  Solving for p_rgh, Initial residual = 0.000249805, Final residual = 7.72792e-08, No Iterations 140
time step continuity errors : sum local = 3.22048e-10, global = -5.36147e-13, cumulative = 1.15128e-07
ExecutionTime = 3.15 s  ClockTime = 4 s

Courant Number mean: 0.00251979 max: 0.18143
Interface Courant Number mean: 0.00035236 max: 0.18143
deltaT = 1.41555e-05
Time = 0.000512345

PIMPLE: iteration 1
MULES: Solving for alpha.water
Phase-1 volume fraction = 0.399994  Min(alpha.water) = -7.1047e-176  Max(alpha.water) = 1.00173
MULES: Solving for alpha.water
Phase-1 volume fraction = 0.399993  Min(alpha.water) = -7.10439e-176  Max(alpha.water) = 1.00173
DICPCG:  Solving for p_rgh, Initial residual = 0.0325438, Final residual = 0.00152635, No Iterations 2
time step continuity errors : sum local = 7.83359e-06, global = 6.51439e-09, cumulative = 1.21642e-07
DICPCG:  Solving for p_rgh, Initial residual = 0.00255343, Final residual = 0.000118717, No Iterations 18
time step continuity errors : sum local = 6.11463e-07, global = 2.0161e-09, cumulative = 1.23658e-07
DICPCG:  Solving for p_rgh, Initial residual = 0.000388613, Final residual = 9.3072e-08, No Iterations 173
time step continuity errors : sum local = 4.75586e-10, global = -5.18909e-12, cumulative = 1.23653e-07
ExecutionTime = 3.23 s  ClockTime = 4 s

Courant Number mean: 0.00280549 max: 0.19919
Interface Courant Number mean: 0.000376911 max: 0.165543
deltaT = 1.42124e-05
Time = 0.000526557

PIMPLE: iteration 1
MULES: Solving for alpha.water
Phase-1 volume fraction = 0.399993  Min(alpha.water) = -7.10407e-176  Max(alpha.water) = 1.00173
MULES: Solving for alpha.water
Phase-1 volume fraction = 0.399993  Min(alpha.water) = -7.10374e-176  Max(alpha.water) = 1.00173
DICPCG:  Solving for p_rgh, Initial residual = 0.029143, Final residual = 0.00101926, No Iterations 3
time step continuity errors : sum local = 5.45812e-06, global = 5.75052e-09, cumulative = 1.29404e-07
DICPCG:  Solving for p_rgh, Initial residual = 0.00277753, Final residual = 0.000123287, No Iterations 9
time step continuity errors : sum local = 6.63533e-07, global = 1.53303e-09, cumulative = 1.30937e-07
DICPCG:  Solving for p_rgh, Initial residual = 0.000440722, Final residual = 8.67124e-08, No Iterations 175
time step continuity errors : sum local = 4.66093e-10, global = 6.00568e-12, cumulative = 1.30943e-07
ExecutionTime = 3.31 s  ClockTime = 4 s

Courant Number mean: 0.00283418 max: 0.206337
Interface Courant Number mean: 0.000376221 max: 0.169593
deltaT = 1.37732e-05
Time = 0.00054033

PIMPLE: iteration 1
MULES: Solving for alpha.water
Phase-1 volume fraction = 0.399992  Min(alpha.water) = -7.10343e-176  Max(alpha.water) = 1.00173
MULES: Solving for alpha.water
Phase-1 volume fraction = 0.399992  Min(alpha.water) = -7.10311e-176  Max(alpha.water) = 1.00173
DICPCG:  Solving for p_rgh, Initial residual = 0.0305054, Final residual = 0.00145272, No Iterations 2
time step continuity errors : sum local = 7.32881e-06, global = 5.03018e-09, cumulative = 1.35973e-07
DICPCG:  Solving for p_rgh, Initial residual = 0.00283114, Final residual = 0.000134221, No Iterations 14
time step continuity errors : sum local = 6.7365e-07, global = 1.1928e-09, cumulative = 1.37166e-07
DICPCG:  Solving for p_rgh, Initial residual = 0.0004345, Final residual = 8.33259e-08, No Iterations 176
time step continuity errors : sum local = 4.1677e-10, global = -3.4562e-13, cumulative = 1.37165e-07
ExecutionTime = 3.39 s  ClockTime = 4 s

Courant Number mean: 0.00275754 max: 0.214008
Interface Courant Number mean: 0.000367132 max: 0.196314
deltaT = 1.28701e-05
Time = 0.0005532

PIMPLE: iteration 1
MULES: Solving for alpha.water
Phase-1 volume fraction = 0.399992  Min(alpha.water) = -7.10279e-176  Max(alpha.water) = 1.00173
MULES: Solving for alpha.water
Phase-1 volume fraction = 0.399991  Min(alpha.water) = -7.10248e-176  Max(alpha.water) = 1.00173
DICPCG:  Solving for p_rgh, Initial residual = 0.0417622, Final residual = 0.00143812, No Iterations 2
time step continuity errors : sum local = 6.31281e-06, global = 4.02881e-09, cumulative = 1.41194e-07
DICPCG:  Solving for p_rgh, Initial residual = 0.00226931, Final residual = 0.00011259, No Iterations 27
time step continuity errors : sum local = 4.87839e-07, global = 1.02986e-09, cumulative = 1.42224e-07
DICPCG:  Solving for p_rgh, Initial residual = 0.000324174, Final residual = 8.23882e-08, No Iterations 172
time step continuity errors : sum local = 3.52535e-10, global = -2.90596e-12, cumulative = 1.42221e-07
ExecutionTime = 3.47 s  ClockTime = 4 s

Courant Number mean: 0.00253466 max: 0.238127
Interface Courant Number mean: 0.000325469 max: 0.204636
deltaT = 1.0808e-05
Time = 0.000564008

PIMPLE: iteration 1
MULES: Solving for alpha.water
Phase-1 volume fraction = 0.399991  Min(alpha.water) = -7.1022e-176  Max(alpha.water) = 1.00173
MULES: Solving for alpha.water
Phase-1 volume fraction = 0.399991  Min(alpha.water) = -7.10193e-176  Max(alpha.water) = 1.00173
DICPCG:  Solving for p_rgh, Initial residual = 0.0377896, Final residual = 0.00129221, No Iterations 2
time step continuity errors : sum local = 4.33077e-06, global = 2.3254e-09, cumulative = 1.44546e-07
DICPCG:  Solving for p_rgh, Initial residual = 0.00177845, Final residual = 8.52409e-05, No Iterations 23
time step continuity errors : sum local = 2.81732e-07, global = 5.70836e-10, cumulative = 1.45117e-07
DICPCG:  Solving for p_rgh, Initial residual = 0.000223321, Final residual = 8.84301e-08, No Iterations 135
time step continuity errors : sum local = 2.89842e-10, global = -3.0877e-11, cumulative = 1.45086e-07
ExecutionTime = 3.55 s  ClockTime = 4 s

Courant Number mean: 0.00209062 max: 0.216642
Interface Courant Number mean: 0.000253783 max: 0.184091
deltaT = 9.97699e-06
Time = 0.000573985

PIMPLE: iteration 1
MULES: Solving for alpha.water
Phase-1 volume fraction = 0.399991  Min(alpha.water) = -7.10167e-176  Max(alpha.water) = 1.00173
MULES: Solving for alpha.water
Phase-1 volume fraction = 0.39999  Min(alpha.water) = -7.10141e-176  Max(alpha.water) = 1.00173
DICPCG:  Solving for p_rgh, Initial residual = 0.0369483, Final residual = 0.00100249, No Iterations 2
time step continuity errors : sum local = 2.9311e-06, global = 1.65631e-09, cumulative = 1.46743e-07
DICPCG:  Solving for p_rgh, Initial residual = 0.00145363, Final residual = 7.16514e-05, No Iterations 52
time step continuity errors : sum local = 2.08439e-07, global = 3.47526e-10, cumulative = 1.4709e-07
DICPCG:  Solving for p_rgh, Initial residual = 0.000201183, Final residual = 7.30267e-08, No Iterations 168
time step continuity errors : sum local = 2.0714e-10, global = 1.77263e-12, cumulative = 1.47092e-07
ExecutionTime = 3.64 s  ClockTime = 4 s

Courant Number mean: 0.00190475 max: 0.213821
Interface Courant Number mean: 0.00024416 max: 0.181146
deltaT = 9.33094e-06
Time = 0.000583316

PIMPLE: iteration 1
MULES: Solving for alpha.water
Phase-1 volume fraction = 0.39999  Min(alpha.water) = -7.10117e-176  Max(alpha.water) = 1.00173
MULES: Solving for alpha.water
Phase-1 volume fraction = 0.39999  Min(alpha.water) = -7.10093e-176  Max(alpha.water) = 1.00173
DICPCG:  Solving for p_rgh, Initial residual = 0.0346675, Final residual = 0.000871391, No Iterations 2
time step continuity errors : sum local = 2.23044e-06, global = 1.35011e-09, cumulative = 1.48442e-07
DICPCG:  Solving for p_rgh, Initial residual = 0.0014061, Final residual = 7.0063e-05, No Iterations 54
time step continuity errors : sum local = 1.78516e-07, global = 2.07079e-10, cumulative = 1.48649e-07
DICPCG:  Solving for p_rgh, Initial residual = 0.000177787, Final residual = 7.68829e-08, No Iterations 168
time step continuity errors : sum local = 1.90474e-10, global = -1.30265e-12, cumulative = 1.48648e-07
ExecutionTime = 3.72 s  ClockTime = 4 s

Courant Number mean: 0.00176788 max: 0.211905
Interface Courant Number mean: 0.000233602 max: 0.179916
deltaT = 8.80554e-06
Time = 0.000592122

PIMPLE: iteration 1
MULES: Solving for alpha.water
Phase-1 volume fraction = 0.39999  Min(alpha.water) = -7.1007e-176  Max(alpha.water) = 1.00173
MULES: Solving for alpha.water
Phase-1 volume fraction = 0.39999  Min(alpha.water) = -7.10048e-176  Max(alpha.water) = 1.00173
DICPCG:  Solving for p_rgh, Initial residual = 0.0319996, Final residual = 0.000772096, No Iterations 2
time step continuity errors : sum local = 1.75598e-06, global = 1.01476e-09, cumulative = 1.49663e-07
DICPCG:  Solving for p_rgh, Initial residual = 0.0013662, Final residual = 6.71369e-05, No Iterations 58
time step continuity errors : sum local = 1.52023e-07, global = 1.74424e-10, cumulative = 1.49837e-07
DICPCG:  Solving for p_rgh, Initial residual = 0.0001619, Final residual = 9.48551e-08, No Iterations 160
time step continuity errors : sum local = 2.07834e-10, global = -4.96326e-12, cumulative = 1.49832e-07
ExecutionTime = 3.81 s  ClockTime = 4 s

Courant Number mean: 0.00166231 max: 0.210552
Interface Courant Number mean: 0.00021815 max: 0.179441
deltaT = 8.36288e-06
Time = 0.000600485

PIMPLE: iteration 1
MULES: Solving for alpha.water
Phase-1 volume fraction = 0.399989  Min(alpha.water) = -7.10027e-176  Max(alpha.water) = 1.00173
MULES: Solving for alpha.water
Phase-1 volume fraction = 0.399989  Min(alpha.water) = -7.10007e-176  Max(alpha.water) = 1.00173
DICPCG:  Solving for p_rgh, Initial residual = 0.0283438, Final residual = 0.00065082, No Iterations 2
time step continuity errors : sum local = 1.33363e-06, global = 7.63261e-10, cumulative = 1.50595e-07
DICPCG:  Solving for p_rgh, Initial residual = 0.00123217, Final residual = 5.76213e-05, No Iterations 64
time step continuity errors : sum local = 1.17457e-07, global = -1.80495e-10, cumulative = 1.50415e-07
DICPCG:  Solving for p_rgh, Initial residual = 0.000138162, Final residual = 8.68008e-08, No Iterations 140
time step continuity errors : sum local = 1.70179e-10, global = 3.90587e-13, cumulative = 1.50415e-07
ExecutionTime = 3.89 s  ClockTime = 4 s

Courant Number mean: 0.00158677 max: 0.208955
Interface Courant Number mean: 0.000209403 max: 0.179017
deltaT = 8.00381e-06
Time = 0.000608488

PIMPLE: iteration 1
MULES: Solving for alpha.water
Phase-1 volume fraction = 0.399989  Min(alpha.water) = -7.09988e-176  Max(alpha.water) = 1.00173
MULES: Solving for alpha.water
Phase-1 volume fraction = 0.399989  Min(alpha.water) = -7.09968e-176  Max(alpha.water) = 1.00173
DICPCG:  Solving for p_rgh, Initial residual = 0.0293609, Final residual = 0.000652096, No Iterations 2
time step continuity errors : sum local = 1.2038e-06, global = 5.82339e-10, cumulative = 1.50998e-07
DICPCG:  Solving for p_rgh, Initial residual = 0.00118869, Final residual = 4.87169e-05, No Iterations 65
time step continuity errors : sum local = 8.91473e-08, global = -3.51333e-10, cumulative = 1.50646e-07
DICPCG:  Solving for p_rgh, Initial residual = 0.000129832, Final residual = 9.14775e-08, No Iterations 135
time step continuity errors : sum local = 1.60531e-10, global = 7.76928e-12, cumulative = 1.50654e-07
ExecutionTime = 3.96 s  ClockTime = 4 s

Courant Number mean: 0.00153241 max: 0.20726
Interface Courant Number mean: 0.000204308 max: 0.178741
deltaT = 7.72346e-06
Time = 0.000616212

PIMPLE: iteration 1
MULES: Solving for alpha.water
Phase-1 volume fraction = 0.399989  Min(alpha.water) = -7.0995e-176  Max(alpha.water) = 1.00173
MULES: Solving for alpha.water
Phase-1 volume fraction = 0.399988  Min(alpha.water) = -7.09933e-176  Max(alpha.water) = 1.00173
DICPCG:  Solving for p_rgh, Initial residual = 0.0282317, Final residual = 0.000568741, No Iterations 2
time step continuity errors : sum local = 9.34442e-07, global = 4.45119e-10, cumulative = 1.51099e-07
DICPCG:  Solving for p_rgh, Initial residual = 0.00113756, Final residual = 5.44158e-05, No Iterations 65
time step continuity errors : sum local = 8.8524e-08, global = -3.73842e-10, cumulative = 1.50725e-07
DICPCG:  Solving for p_rgh, Initial residual = 0.000130243, Final residual = 8.11185e-08, No Iterations 130
time step continuity errors : sum local = 1.25872e-10, global = 1.98491e-12, cumulative = 1.50727e-07
ExecutionTime = 4.04 s  ClockTime = 5 s

Courant Number mean: 0.00148796 max: 0.205412
Interface Courant Number mean: 0.000199126 max: 0.178743
deltaT = 7.51885e-06
Time = 0.000623731

PIMPLE: iteration 1
MULES: Solving for alpha.water
Phase-1 volume fraction = 0.399988  Min(alpha.water) = -7.09916e-176  Max(alpha.water) = 1.00173
MULES: Solving for alpha.water
Phase-1 volume fraction = 0.399988  Min(alpha.water) = -7.09899e-176  Max(alpha.water) = 1.00173
DICPCG:  Solving for p_rgh, Initial residual = 0.0313678, Final residual = 0.00150455, No Iterations 1
time step continuity errors : sum local = 2.24535e-06, global = 3.08466e-10, cumulative = 1.51036e-07
DICPCG:  Solving for p_rgh, Initial residual = 0.0019226, Final residual = 9.45953e-05, No Iterations 39
time step continuity errors : sum local = 1.40659e-07, global = 1.22286e-10, cumulative = 1.51158e-07
DICPCG:  Solving for p_rgh, Initial residual = 0.000191886, Final residual = 8.10935e-08, No Iterations 169
time step continuity errors : sum local = 1.17441e-10, global = -2.40812e-12, cumulative = 1.51156e-07
ExecutionTime = 4.13 s  ClockTime = 5 s

Courant Number mean: 0.00145103 max: 0.202003
Interface Courant Number mean: 0.00019363 max: 0.179198
deltaT = 7.44403e-06
Time = 0.000631175

PIMPLE: iteration 1
MULES: Solving for alpha.water
Phase-1 volume fraction = 0.399988  Min(alpha.water) = -7.09883e-176  Max(alpha.water) = 1.00173
MULES: Solving for alpha.water
Phase-1 volume fraction = 0.399988  Min(alpha.water) = -7.09867e-176  Max(alpha.water) = 1.00173
DICPCG:  Solving for p_rgh, Initial residual = 0.0369532, Final residual = 0.000632449, No Iterations 2
time step continuity errors : sum local = 8.87609e-07, global = 1.83047e-10, cumulative = 1.51339e-07
DICPCG:  Solving for p_rgh, Initial residual = 0.001244, Final residual = 5.79366e-05, No Iterations 65
time step continuity errors : sum local = 8.11794e-08, global = -3.59173e-10, cumulative = 1.50979e-07
DICPCG:  Solving for p_rgh, Initial residual = 0.000140778, Final residual = 9.66407e-08, No Iterations 135
time step continuity errors : sum local = 1.28688e-10, global = 4.21753e-12, cumulative = 1.50984e-07
ExecutionTime = 4.21 s  ClockTime = 5 s

Courant Number mean: 0.00142904 max: 0.19848
Interface Courant Number mean: 0.00018872 max: 0.181679
deltaT = 7.50058e-06
Time = 0.000638675

PIMPLE: iteration 1
MULES: Solving for alpha.water
Phase-1 volume fraction = 0.399987  Min(alpha.water) = -7.09852e-176  Max(alpha.water) = 1.00173
MULES: Solving for alpha.water
Phase-1 volume fraction = 0.399987  Min(alpha.water) = -7.09837e-176  Max(alpha.water) = 1.00173
DICPCG:  Solving for p_rgh, Initial residual = 0.0407201, Final residual = 0.000628172, No Iterations 2
time step continuity errors : sum local = 8.4421e-07, global = 1.20845e-10, cumulative = 1.51105e-07
DICPCG:  Solving for p_rgh, Initial residual = 0.00137651, Final residual = 6.81543e-05, No Iterations 64
time step continuity errors : sum local = 9.11979e-08, global = -2.38577e-10, cumulative = 1.50866e-07
DICPCG:  Solving for p_rgh, Initial residual = 0.00015817, Final residual = 9.63006e-08, No Iterations 141
time step continuity errors : sum local = 1.24319e-10, global = -1.85685e-12, cumulative = 1.50864e-07
ExecutionTime = 4.29 s  ClockTime = 5 s

Courant Number mean: 0.0014222 max: 0.195604
Interface Courant Number mean: 0.000184722 max: 0.186423
deltaT = 7.66837e-06
Time = 0.000646344

PIMPLE: iteration 1
MULES: Solving for alpha.water
Phase-1 volume fraction = 0.399987  Min(alpha.water) = -7.09822e-176  Max(alpha.water) = 1.00173
MULES: Solving for alpha.water
Phase-1 volume fraction = 0.399987  Min(alpha.water) = -7.09808e-176  Max(alpha.water) = 1.00173
DICPCG:  Solving for p_rgh, Initial residual = 0.044848, Final residual = 0.00069684, No Iterations 2
time step continuity errors : sum local = 9.15507e-07, global = 8.15467e-12, cumulative = 1.50872e-07
DICPCG:  Solving for p_rgh, Initial residual = 0.00166603, Final residual = 7.07512e-05, No Iterations 65
time step continuity errors : sum local = 9.21667e-08, global = -3.87308e-10, cumulative = 1.50485e-07
DICPCG:  Solving for p_rgh, Initial residual = 0.000171279, Final residual = 8.22137e-08, No Iterations 141
time step continuity errors : sum local = 1.12925e-10, global = 3.24556e-12, cumulative = 1.50488e-07
ExecutionTime = 4.37 s  ClockTime = 5 s

Courant Number mean: 0.0014254 max: 0.19318
Interface Courant Number mean: 0.000181147 max: 0.192935
deltaT = 7.9385e-06
Time = 0.000654282

PIMPLE: iteration 1
MULES: Solving for alpha.water
Phase-1 volume fraction = 0.399987  Min(alpha.water) = -7.09793e-176  Max(alpha.water) = 1.00173
MULES: Solving for alpha.water
Phase-1 volume fraction = 0.399986  Min(alpha.water) = -7.09779e-176  Max(alpha.water) = 1.00173
DICPCG:  Solving for p_rgh, Initial residual = 0.0434092, Final residual = 0.000730076, No Iterations 2
time step continuity errors : sum local = 1.02179e-06, global = -7.72643e-11, cumulative = 1.50411e-07
DICPCG:  Solving for p_rgh, Initial residual = 0.00182041, Final residual = 8.55025e-05, No Iterations 64
time step continuity errors : sum local = 1.18271e-07, global = -2.58609e-10, cumulative = 1.50152e-07
DICPCG:  Solving for p_rgh, Initial residual = 0.00020257, Final residual = 9.2633e-08, No Iterations 141
time step continuity errors : sum local = 1.34514e-10, global = -3.25308e-12, cumulative = 1.50149e-07
ExecutionTime = 4.45 s  ClockTime = 5 s

Courant Number mean: 0.00143709 max: 0.200891
Interface Courant Number mean: 0.000181692 max: 0.200891
deltaT = 7.9029e-06
Time = 0.000662185

PIMPLE: iteration 1
MULES: Solving for alpha.water
Phase-1 volume fraction = 0.399986  Min(alpha.water) = -7.09766e-176  Max(alpha.water) = 1.00173
MULES: Solving for alpha.water
Phase-1 volume fraction = 0.399986  Min(alpha.water) = -7.09753e-176  Max(alpha.water) = 1.00173
DICPCG:  Solving for p_rgh, Initial residual = 0.0407106, Final residual = 0.0005975, No Iterations 2
time step continuity errors : sum local = 8.42292e-07, global = -1.98982e-10, cumulative = 1.4995e-07
DICPCG:  Solving for p_rgh, Initial residual = 0.00180044, Final residual = 8.98636e-05, No Iterations 32
time step continuity errors : sum local = 1.25019e-07, global = 4.13216e-11, cumulative = 1.49991e-07
DICPCG:  Solving for p_rgh, Initial residual = 0.000197229, Final residual = 9.36765e-08, No Iterations 169
time step continuity errors : sum local = 1.32125e-10, global = -2.41785e-12, cumulative = 1.49989e-07
ExecutionTime = 4.54 s  ClockTime = 5 s

Courant Number mean: 0.00139291 max: 0.199054
Interface Courant Number mean: 0.000186835 max: 0.199054
deltaT = 7.93978e-06
Time = 0.000670125

PIMPLE: iteration 1
MULES: Solving for alpha.water
Phase-1 volume fraction = 0.399986  Min(alpha.water) = -7.0974e-176  Max(alpha.water) = 1.00173
MULES: Solving for alpha.water
Phase-1 volume fraction = 0.399986  Min(alpha.water) = -7.09728e-176  Max(alpha.water) = 1.00173
DICPCG:  Solving for p_rgh, Initial residual = 0.0381645, Final residual = 0.000856568, No Iterations 2
time step continuity errors : sum local = 1.23236e-06, global = -3.02142e-10, cumulative = 1.49687e-07
DICPCG:  Solving for p_rgh, Initial residual = 0.00189489, Final residual = 9.23752e-05, No Iterations 59
time step continuity errors : sum local = 1.31406e-07, global = -3.22622e-11, cumulative = 1.49655e-07
DICPCG:  Solving for p_rgh, Initial residual = 0.000213793, Final residual = 9.71709e-08, No Iterations 160
time step continuity errors : sum local = 1.43763e-10, global = -4.36276e-12, cumulative = 1.4965e-07
ExecutionTime = 4.62 s  ClockTime = 5 s

Courant Number mean: 0.00139034 max: 0.197635
Interface Courant Number mean: 0.000179673 max: 0.197635
deltaT = 8.03418e-06
Time = 0.000678159

PIMPLE: iteration 1
MULES: Solving for alpha.water
Phase-1 volume fraction = 0.399985  Min(alpha.water) = -1.88598e-175  Max(alpha.water) = 1.00173
MULES: Solving for alpha.water
Phase-1 volume fraction = 0.399985  Min(alpha.water) = -3.06653e-175  Max(alpha.water) = 1.00173
DICPCG:  Solving for p_rgh, Initial residual = 0.0356649, Final residual = 0.000731157, No Iterations 2
time step continuity errors : sum local = 1.11314e-06, global = -3.70967e-10, cumulative = 1.49279e-07
DICPCG:  Solving for p_rgh, Initial residual = 0.00165986, Final residual = 7.59688e-05, No Iterations 64
time step continuity errors : sum local = 1.14436e-07, global = -3.17758e-10, cumulative = 1.48961e-07
DICPCG:  Solving for p_rgh, Initial residual = 0.000182588, Final residual = 8.99072e-08, No Iterations 141
time step continuity errors : sum local = 1.41683e-10, global = -2.28966e-12, cumulative = 1.48959e-07
ExecutionTime = 4.71 s  ClockTime = 5 s

Courant Number mean: 0.0014151 max: 0.196491
Interface Courant Number mean: 0.000178719 max: 0.196491
deltaT = 8.1767e-06
Time = 0.000686336

PIMPLE: iteration 1
MULES: Solving for alpha.water
Phase-1 volume fraction = 0.399985  Min(alpha.water) = -3.06648e-175  Max(alpha.water) = 1.00173
MULES: Solving for alpha.water
Phase-1 volume fraction = 0.399985  Min(alpha.water) = -3.06644e-175  Max(alpha.water) = 1.00173
DICPCG:  Solving for p_rgh, Initial residual = 0.0416365, Final residual = 0.00179881, No Iterations 2
time step continuity errors : sum local = 2.85321e-06, global = -4.80543e-10, cumulative = 1.48479e-07
DICPCG:  Solving for p_rgh, Initial residual = 0.00303605, Final residual = 0.000147022, No Iterations 63
time step continuity errors : sum local = 2.32051e-07, global = -2.37731e-10, cumulative = 1.48241e-07
DICPCG:  Solving for p_rgh, Initial residual = 0.000392952, Final residual = 9.44439e-08, No Iterations 171
time step continuity errors : sum local = 1.57696e-10, global = 1.40272e-12, cumulative = 1.48242e-07
ExecutionTime = 4.79 s  ClockTime = 5 s

Courant Number mean: 0.00144396 max: 0.175374
Interface Courant Number mean: 0.000177791 max: 0.175374
deltaT = 9.10855e-06
Time = 0.000695444

PIMPLE: iteration 1
MULES: Solving for alpha.water
Phase-1 volume fraction = 0.399985  Min(alpha.water) = -1.70378e-175  Max(alpha.water) = 1.00173
MULES: Solving for alpha.water
Phase-1 volume fraction = 0.399984  Min(alpha.water) = -3.36373e-176  Max(alpha.water) = 1.00173
DICPCG:  Solving for p_rgh, Initial residual = 0.039594, Final residual = 0.00120431, No Iterations 2
time step continuity errors : sum local = 2.35735e-06, global = -8.09162e-10, cumulative = 1.47433e-07
DICPCG:  Solving for p_rgh, Initial residual = 0.00290052, Final residual = 0.000143879, No Iterations 64
time step continuity errors : sum local = 2.79054e-07, global = -4.1077e-10, cumulative = 1.47022e-07
DICPCG:  Solving for p_rgh, Initial residual = 0.000386407, Final residual = 9.49319e-08, No Iterations 172
time step continuity errors : sum local = 1.97351e-10, global = -9.0056e-13, cumulative = 1.47021e-07
ExecutionTime = 4.88 s  ClockTime = 5 s

Courant Number mean: 0.00160411 max: 0.157491
Interface Courant Number mean: 0.000196346 max: 0.157491
deltaT = 1.02632e-05
Time = 0.000705708

PIMPLE: iteration 1
MULES: Solving for alpha.water
Phase-1 volume fraction = 0.399984  Min(alpha.water) = -3.36367e-176  Max(alpha.water) = 1.00173
MULES: Solving for alpha.water
Phase-1 volume fraction = 0.399984  Min(alpha.water) = -3.36361e-176  Max(alpha.water) = 1.00173
DICPCG:  Solving for p_rgh, Initial residual = 0.037503, Final residual = 0.00100166, No Iterations 2
time step continuity errors : sum local = 2.49193e-06, global = -1.45826e-09, cumulative = 1.45563e-07
DICPCG:  Solving for p_rgh, Initial residual = 0.00271556, Final residual = 0.000132823, No Iterations 40
time step continuity errors : sum local = 3.23981e-07, global = 2.24967e-10, cumulative = 1.45788e-07
DICPCG:  Solving for p_rgh, Initial residual = 0.000359196, Final residual = 8.21018e-08, No Iterations 173
time step continuity errors : sum local = 2.0545e-10, global = -2.84512e-12, cumulative = 1.45785e-07
ExecutionTime = 4.97 s  ClockTime = 5 s

Courant Number mean: 0.00181519 max: 0.153144
Interface Courant Number mean: 0.000221642 max: 0.148713
deltaT = 1.16014e-05
Time = 0.000717309

PIMPLE: iteration 1
MULES: Solving for alpha.water
Phase-1 volume fraction = 0.399984  Min(alpha.water) = -3.36354e-176  Max(alpha.water) = 1.00173
MULES: Solving for alpha.water
Phase-1 volume fraction = 0.399983  Min(alpha.water) = -3.36348e-176  Max(alpha.water) = 1.00173
DICPCG:  Solving for p_rgh, Initial residual = 0.0441761, Final residual = 0.000846184, No Iterations 2
time step continuity errors : sum local = 2.63019e-06, global = -2.51227e-09, cumulative = 1.43273e-07
DICPCG:  Solving for p_rgh, Initial residual = 0.00273348, Final residual = 0.000135505, No Iterations 48
time step continuity errors : sum local = 4.15275e-07, global = -3.97916e-10, cumulative = 1.42875e-07
DICPCG:  Solving for p_rgh, Initial residual = 0.000372823, Final residual = 7.95018e-08, No Iterations 174
time step continuity errors : sum local = 2.53534e-10, global = -1.95371e-12, cumulative = 1.42873e-07
ExecutionTime = 5.05 s  ClockTime = 6 s

Courant Number mean: 0.00206155 max: 0.203653
Interface Courant Number mean: 0.000257434 max: 0.177706
deltaT = 1.13922e-05
Time = 0.000728701

PIMPLE: iteration 1
MULES: Solving for alpha.water
Phase-1 volume fraction = 0.399983  Min(alpha.water) = -3.36342e-176  Max(alpha.water) = 1.00173
MULES: Solving for alpha.water
Phase-1 volume fraction = 0.399983  Min(alpha.water) = -3.36336e-176  Max(alpha.water) = 1.00173
DICPCG:  Solving for p_rgh, Initial residual = 0.039654, Final residual = 0.000759602, No Iterations 2
time step continuity errors : sum local = 2.42384e-06, global = -2.48307e-09, cumulative = 1.4039e-07
DICPCG:  Solving for p_rgh, Initial residual = 0.00224251, Final residual = 0.000110864, No Iterations 51
time step continuity errors : sum local = 3.53102e-07, global = -1.91886e-10, cumulative = 1.40198e-07
DICPCG:  Solving for p_rgh, Initial residual = 0.000276862, Final residual = 9.0387e-08, No Iterations 160
time step continuity errors : sum local = 2.98331e-10, global = -5.00186e-12, cumulative = 1.40193e-07
ExecutionTime = 5.13 s  ClockTime = 6 s

Courant Number mean: 0.00201765 max: 0.213225
Interface Courant Number mean: 0.000249008 max: 0.186856
deltaT = 1.06856e-05
Time = 0.000739387

PIMPLE: iteration 1
MULES: Solving for alpha.water
Phase-1 volume fraction = 0.399983  Min(alpha.water) = -3.36332e-176  Max(alpha.water) = 1.00173
MULES: Solving for alpha.water
Phase-1 volume fraction = 0.399982  Min(alpha.water) = -3.36327e-176  Max(alpha.water) = 1.00173
DICPCG:  Solving for p_rgh, Initial residual = 0.0317311, Final residual = 0.000580901, No Iterations 2
time step continuity errors : sum local = 1.74866e-06, global = -2.39631e-09, cumulative = 1.37797e-07
DICPCG:  Solving for p_rgh, Initial residual = 0.00183833, Final residual = 9.04389e-05, No Iterations 14
time step continuity errors : sum local = 2.70783e-07, global = -3.0623e-10, cumulative = 1.37491e-07
DICPCG:  Solving for p_rgh, Initial residual = 0.000220876, Final residual = 9.55202e-08, No Iterations 168
time step continuity errors : sum local = 2.86894e-10, global = 1.86191e-12, cumulative = 1.37493e-07
ExecutionTime = 5.21 s  ClockTime = 6 s

Courant Number mean: 0.00185623 max: 0.197291
Interface Courant Number mean: 0.000247755 max: 0.17779
deltaT = 1.08313e-05
Time = 0.000750218

PIMPLE: iteration 1
MULES: Solving for alpha.water
Phase-1 volume fraction = 0.399982  Min(alpha.water) = -3.36323e-176  Max(alpha.water) = 1.00173
MULES: Solving for alpha.water
Phase-1 volume fraction = 0.399982  Min(alpha.water) = -3.36319e-176  Max(alpha.water) = 1.00173
DICPCG:  Solving for p_rgh, Initial residual = 0.0317126, Final residual = 0.000638457, No Iterations 2
time step continuity errors : sum local = 1.99572e-06, global = -2.72765e-09, cumulative = 1.34765e-07
DICPCG:  Solving for p_rgh, Initial residual = 0.00176776, Final residual = 8.81804e-05, No Iterations 32
time step continuity errors : sum local = 2.73958e-07, global = -5.20897e-10, cumulative = 1.34244e-07
DICPCG:  Solving for p_rgh, Initial residual = 0.000235968, Final residual = 7.85725e-08, No Iterations 174
time step continuity errors : sum local = 2.46736e-10, global = -1.27184e-13, cumulative = 1.34244e-07
ExecutionTime = 5.29 s  ClockTime = 6 s

Courant Number mean: 0.00183167 max: 0.185521
Interface Courant Number mean: 0.000220338 max: 0.176574
deltaT = 1.16761e-05
Time = 0.000761894

PIMPLE: iteration 1
MULES: Solving for alpha.water
Phase-1 volume fraction = 0.399982  Min(alpha.water) = -3.36315e-176  Max(alpha.water) = 1.00173
MULES: Solving for alpha.water
Phase-1 volume fraction = 0.399981  Min(alpha.water) = -3.36311e-176  Max(alpha.water) = 1.00173
DICPCG:  Solving for p_rgh, Initial residual = 0.0328132, Final residual = 0.000701611, No Iterations 2
time step continuity errors : sum local = 2.53454e-06, global = -3.4639e-09, cumulative = 1.3078e-07
DICPCG:  Solving for p_rgh, Initial residual = 0.00179755, Final residual = 8.94868e-05, No Iterations 24
time step continuity errors : sum local = 3.2238e-07, global = -6.22979e-10, cumulative = 1.30157e-07
DICPCG:  Solving for p_rgh, Initial residual = 0.000260044, Final residual = 9.49871e-08, No Iterations 174
time step continuity errors : sum local = 3.44372e-10, global = 2.95773e-12, cumulative = 1.3016e-07
ExecutionTime = 5.37 s  ClockTime = 6 s

Courant Number mean: 0.00188929 max: 0.174853
Interface Courant Number mean: 0.000218176 max: 0.174853
deltaT = 1.30087e-05
Time = 0.000774903

PIMPLE: iteration 1
MULES: Solving for alpha.water
Phase-1 volume fraction = 0.399981  Min(alpha.water) = -3.36308e-176  Max(alpha.water) = 1.00173
MULES: Solving for alpha.water
Phase-1 volume fraction = 0.399981  Min(alpha.water) = -3.36304e-176  Max(alpha.water) = 1.00144
DICPCG:  Solving for p_rgh, Initial residual = 0.038774, Final residual = 0.00121118, No Iterations 2
time step continuity errors : sum local = 5.28395e-06, global = -4.88809e-09, cumulative = 1.25272e-07
DICPCG:  Solving for p_rgh, Initial residual = 0.00245242, Final residual = 0.000119327, No Iterations 35
time step continuity errors : sum local = 5.18127e-07, global = -1.02327e-09, cumulative = 1.24249e-07
DICPCG:  Solving for p_rgh, Initial residual = 0.000426098, Final residual = 7.04634e-08, No Iterations 176
time step continuity errors : sum local = 3.10983e-10, global = -4.69037e-13, cumulative = 1.24248e-07
ExecutionTime = 5.45 s  ClockTime = 6 s

Courant Number mean: 0.00200788 max: 0.154481
Interface Courant Number mean: 0.000219591 max: 0.147592
deltaT = 1.46897e-05
Time = 0.000789593

PIMPLE: iteration 1
MULES: Solving for alpha.water
Phase-1 volume fraction = 0.39998  Min(alpha.water) = -3.36301e-176  Max(alpha.water) = 1.00111
MULES: Solving for alpha.water
Phase-1 volume fraction = 0.39998  Min(alpha.water) = -3.36298e-176  Max(alpha.water) = 1.00111
DICPCG:  Solving for p_rgh, Initial residual = 0.0361218, Final residual = 0.00111621, No Iterations 2
time step continuity errors : sum local = 6.07762e-06, global = -7.04406e-09, cumulative = 1.17204e-07
DICPCG:  Solving for p_rgh, Initial residual = 0.00327751, Final residual = 0.00016192, No Iterations 21
time step continuity errors : sum local = 8.78569e-07, global = -1.43541e-09, cumulative = 1.15769e-07
DICPCG:  Solving for p_rgh, Initial residual = 0.000551484, Final residual = 9.85171e-08, No Iterations 167
time step continuity errors : sum local = 5.40269e-10, global = -8.27593e-13, cumulative = 1.15768e-07
ExecutionTime = 5.53 s  ClockTime = 6 s

Courant Number mean: 0.00221156 max: 0.187237
Interface Courant Number mean: 0.00026746 max: 0.187237
deltaT = 1.56871e-05
Time = 0.00080528

PIMPLE: iteration 1
MULES: Solving for alpha.water
Phase-1 volume fraction = 0.39998  Min(alpha.water) = -3.36296e-176  Max(alpha.water) = 1.00111
MULES: Solving for alpha.water
Phase-1 volume fraction = 0.39998  Min(alpha.water) = -3.36294e-176  Max(alpha.water) = 1.00111
DICPCG:  Solving for p_rgh, Initial residual = 0.0269602, Final residual = 0.00129782, No Iterations 2
time step continuity errors : sum local = 8.06864e-06, global = -8.86783e-09, cumulative = 1.069e-07
DICPCG:  Solving for p_rgh, Initial residual = 0.0029338, Final residual = 0.000146015, No Iterations 46
time step continuity errors : sum local = 9.10504e-07, global = -1.80987e-09, cumulative = 1.0509e-07
DICPCG:  Solving for p_rgh, Initial residual = 0.000493401, Final residual = 9.56285e-08, No Iterations 174
time step continuity errors : sum local = 6.14988e-10, global = -3.27677e-12, cumulative = 1.05087e-07
ExecutionTime = 5.62 s  ClockTime = 6 s

Courant Number mean: 0.00234687 max: 0.247842
Interface Courant Number mean: 0.000286129 max: 0.247842
deltaT = 1.26562e-05
Time = 0.000817936

PIMPLE: iteration 1
MULES: Solving for alpha.water
Phase-1 volume fraction = 0.399979  Min(alpha.water) = -1.47107e-182  Max(alpha.water) = 1.00111
MULES: Solving for alpha.water
Phase-1 volume fraction = 0.399979  Min(alpha.water) = -2.7115e-188  Max(alpha.water) = 1.00111
DICPCG:  Solving for p_rgh, Initial residual = 0.0193542, Final residual = 0.000816468, No Iterations 2
time step continuity errors : sum local = 3.80649e-06, global = -5.06788e-09, cumulative = 1.00019e-07
DICPCG:  Solving for p_rgh, Initial residual = 0.00170498, Final residual = 7.8258e-05, No Iterations 12
time step continuity errors : sum local = 3.64284e-07, global = -5.28604e-10, cumulative = 9.94904e-08
DICPCG:  Solving for p_rgh, Initial residual = 0.000221364, Final residual = 8.61307e-08, No Iterations 173
time step continuity errors : sum local = 4.01312e-10, global = -2.88122e-12, cumulative = 9.94875e-08
ExecutionTime = 5.69 s  ClockTime = 6 s

Courant Number mean: 0.00185082 max: 0.209858
Interface Courant Number mean: 0.000224965 max: 0.209858
deltaT = 1.20603e-05
Time = 0.000829996

PIMPLE: iteration 1
MULES: Solving for alpha.water
Phase-1 volume fraction = 0.399979  Min(alpha.water) = -1.91392e-193  Max(alpha.water) = 1.00111
MULES: Solving for alpha.water
Phase-1 volume fraction = 0.399979  Min(alpha.water) = -2.73781e-198  Max(alpha.water) = 1.00111
DICPCG:  Solving for p_rgh, Initial residual = 0.0173208, Final residual = 0.000635724, No Iterations 2
time step continuity errors : sum local = 2.79473e-06, global = -5.09018e-09, cumulative = 9.43973e-08
DICPCG:  Solving for p_rgh, Initial residual = 0.00142381, Final residual = 7.08433e-05, No Iterations 45
time step continuity errors : sum local = 3.11772e-07, global = -1.12168e-09, cumulative = 9.32757e-08
DICPCG:  Solving for p_rgh, Initial residual = 0.000202575, Final residual = 7.36475e-08, No Iterations 171
time step continuity errors : sum local = 3.29528e-10, global = 4.63947e-13, cumulative = 9.32761e-08
ExecutionTime = 5.78 s  ClockTime = 6 s

Courant Number mean: 0.00170195 max: 0.2025
Interface Courant Number mean: 0.000208717 max: 0.2025
deltaT = 1.19113e-05
Time = 0.000841908

PIMPLE: iteration 1
MULES: Solving for alpha.water
Phase-1 volume fraction = 0.399979  Min(alpha.water) = -5.53591e-203  Max(alpha.water) = 1.00111
MULES: Solving for alpha.water
Phase-1 volume fraction = 0.399978  Min(alpha.water) = -1.3819e-207  Max(alpha.water) = 1.00111
DICPCG:  Solving for p_rgh, Initial residual = 0.0160406, Final residual = 0.000651911, No Iterations 2
time step continuity errors : sum local = 2.93832e-06, global = -4.79274e-09, cumulative = 8.84834e-08
DICPCG:  Solving for p_rgh, Initial residual = 0.00132187, Final residual = 6.48994e-05, No Iterations 57
time step continuity errors : sum local = 2.92823e-07, global = -5.951e-10, cumulative = 8.78883e-08
DICPCG:  Solving for p_rgh, Initial residual = 0.000184022, Final residual = 7.34388e-08, No Iterations 173
time step continuity errors : sum local = 3.39105e-10, global = 2.23065e-12, cumulative = 8.78905e-08
ExecutionTime = 5.87 s  ClockTime = 6 s

Courant Number mean: 0.00161173 max: 0.199528
Interface Courant Number mean: 0.000196522 max: 0.199528
deltaT = 1.19374e-05
Time = 0.000853845

PIMPLE: iteration 1
MULES: Solving for alpha.water
Phase-1 volume fraction = 0.399978  Min(alpha.water) = -3.50032e-212  Max(alpha.water) = 1.00111
[...]
DICPCG:  Solving for p_rgh, Initial residual = 0.000375091, Final residual = 7.83133e-08, No Iterations 175
time step continuity errors : sum local = 3.02533e-10, global = 3.28383e-12, cumulative = -7.36645e-08
ExecutionTime = 30.78 s  ClockTime = 31 s

Courant Number mean: 0.00213191 max: 0.146006
Interface Courant Number mean: 0.000184161 max: 0.118528
deltaT = 2.54837e-05
Time = 0.00397648

PIMPLE: iteration 1
MULES: Solving for alpha.water
Phase-1 volume fraction = 0.400238  Min(alpha.water) = 0  Max(alpha.water) = 1
MULES: Solving for alpha.water
Phase-1 volume fraction = 0.40024  Min(alpha.water) = 0  Max(alpha.water) = 1
DICPCG:  Solving for p_rgh, Initial residual = 0.0297359, Final residual = 0.00106706, No Iterations 2
time step continuity errors : sum local = 4.69722e-06, global = 2.1585e-09, cumulative = -7.1506e-08
DICPCG:  Solving for p_rgh, Initial residual = 0.00233663, Final residual = 0.000115711, No Iterations 28
time step continuity errors : sum local = 5.04966e-07, global = 9.97297e-10, cumulative = -7.05087e-08
DICPCG:  Solving for p_rgh, Initial residual = 0.000494902, Final residual = 9.45172e-08, No Iterations 173
time step continuity errors : sum local = 4.05603e-10, global = 6.54161e-13, cumulative = -7.05081e-08
ExecutionTime = 30.87 s  ClockTime = 31 s

Courant Number mean: 0.00232357 max: 0.124936
Interface Courant Number mean: 0.000194126 max: 0.105762
deltaT = 2.95591e-05
Time = 0.00400604

PIMPLE: iteration 1
MULES: Solving for alpha.water
Phase-1 volume fraction = 0.400242  Min(alpha.water) = 0  Max(alpha.water) = 1
MULES: Solving for alpha.water
Phase-1 volume fraction = 0.400244  Min(alpha.water) = 0  Max(alpha.water) = 1
DICPCG:  Solving for p_rgh, Initial residual = 0.0276939, Final residual = 0.0010511, No Iterations 2
time step continuity errors : sum local = 5.50665e-06, global = 2.49894e-09, cumulative = -6.80091e-08
DICPCG:  Solving for p_rgh, Initial residual = 0.00247901, Final residual = 0.000121054, No Iterations 12
time step continuity errors : sum local = 6.28841e-07, global = 1.5663e-09, cumulative = -6.64428e-08
DICPCG:  Solving for p_rgh, Initial residual = 0.000549829, Final residual = 7.98482e-08, No Iterations 176
time step continuity errors : sum local = 4.16442e-10, global = -1.13017e-12, cumulative = -6.6444e-08
ExecutionTime = 30.95 s  ClockTime = 31 s

Courant Number mean: 0.00259044 max: 0.096952
Interface Courant Number mean: 0.000201752 max: 0.0967339
deltaT = 3.54618e-05
Time = 0.0040415

PIMPLE: iteration 1
MULES: Solving for alpha.water
Phase-1 volume fraction = 0.400246  Min(alpha.water) = 0  Max(alpha.water) = 1
MULES: Solving for alpha.water
Phase-1 volume fraction = 0.400249  Min(alpha.water) = 0  Max(alpha.water) = 1
DICPCG:  Solving for p_rgh, Initial residual = 0.0347989, Final residual = 0.00107446, No Iterations 2
time step continuity errors : sum local = 7.40982e-06, global = 2.42211e-09, cumulative = -6.40219e-08
DICPCG:  Solving for p_rgh, Initial residual = 0.00255312, Final residual = 0.000126629, No Iterations 42
time step continuity errors : sum local = 8.73781e-07, global = 1.16552e-09, cumulative = -6.28563e-08
DICPCG:  Solving for p_rgh, Initial residual = 0.000627813, Final residual = 9.37425e-08, No Iterations 176
time step continuity errors : sum local = 6.68635e-10, global = -4.2867e-12, cumulative = -6.28606e-08
ExecutionTime = 31.03 s  ClockTime = 32 s

Courant Number mean: 0.00302602 max: 0.102976
Interface Courant Number mean: 0.000230653 max: 0.102976
deltaT = 4.23191e-05
Time = 0.00408382

PIMPLE: iteration 1
MULES: Solving for alpha.water
Phase-1 volume fraction = 0.400252  Min(alpha.water) = 0  Max(alpha.water) = 1
MULES: Solving for alpha.water
Phase-1 volume fraction = 0.400255  Min(alpha.water) = 0  Max(alpha.water) = 1
DICPCG:  Solving for p_rgh, Initial residual = 0.0327226, Final residual = 0.00125085, No Iterations 2
time step continuity errors : sum local = 1.15342e-05, global = 2.76764e-09, cumulative = -6.0093e-08
DICPCG:  Solving for p_rgh, Initial residual = 0.00265011, Final residual = 0.000121341, No Iterations 65
time step continuity errors : sum local = 1.12126e-06, global = -2.61295e-09, cumulative = -6.27059e-08
DICPCG:  Solving for p_rgh, Initial residual = 0.000675554, Final residual = 9.44018e-08, No Iterations 141
time step continuity errors : sum local = 9.3393e-10, global = 1.89965e-10, cumulative = -6.2516e-08
ExecutionTime = 31.12 s  ClockTime = 32 s

Courant Number mean: 0.00364499 max: 0.131892
Interface Courant Number mean: 0.000284089 max: 0.131892
deltaT = 4.86916e-05
Time = 0.00413251

PIMPLE: iteration 1
MULES: Solving for alpha.water
Phase-1 volume fraction = 0.400258  Min(alpha.water) = 0  Max(alpha.water) = 1
MULES: Solving for alpha.water
Phase-1 volume fraction = 0.400262  Min(alpha.water) = 0  Max(alpha.water) = 1
DICPCG:  Solving for p_rgh, Initial residual = 0.0704114, Final residual = 0.00288562, No Iterations 2
time step continuity errors : sum local = 3.49258e-05, global = 5.74817e-10, cumulative = -6.19412e-08
DICPCG:  Solving for p_rgh, Initial residual = 0.00490575, Final residual = 0.000235431, No Iterations 11
time step continuity errors : sum local = 2.93912e-06, global = 4.00206e-09, cumulative = -5.79391e-08
DICPCG:  Solving for p_rgh, Initial residual = 0.00127721, Final residual = 9.87635e-08, No Iterations 175
time step continuity errors : sum local = 1.23411e-09, global = 8.56037e-12, cumulative = -5.79305e-08
ExecutionTime = 31.21 s  ClockTime = 32 s

Courant Number mean: 0.00463547 max: 0.205157
Interface Courant Number mean: 0.000452893 max: 0.205157
deltaT = 4.74328e-05
Time = 0.00417994

PIMPLE: iteration 1
MULES: Solving for alpha.water
Phase-1 volume fraction = 0.400265  Min(alpha.water) = 0  Max(alpha.water) = 1
MULES: Solving for alpha.water
Phase-1 volume fraction = 0.400269  Min(alpha.water) = 0  Max(alpha.water) = 1
DICPCG:  Solving for p_rgh, Initial residual = 0.0974036, Final residual = 0.00401814, No Iterations 2
time step continuity errors : sum local = 5.03773e-05, global = -5.09729e-09, cumulative = -6.30278e-08
DICPCG:  Solving for p_rgh, Initial residual = 0.00623953, Final residual = 0.000305081, No Iterations 39
time step continuity errors : sum local = 4.00601e-06, global = -1.88281e-09, cumulative = -6.49106e-08
DICPCG:  Solving for p_rgh, Initial residual = 0.00178227, Final residual = 9.39036e-08, No Iterations 180
time step continuity errors : sum local = 1.16536e-09, global = 4.98093e-12, cumulative = -6.49057e-08
ExecutionTime = 31.3 s  ClockTime = 32 s

Courant Number mean: 0.00527834 max: 0.356569
Interface Courant Number mean: 0.000581221 max: 0.356569
deltaT = 2.65932e-05
Time = 0.00420654

PIMPLE: iteration 1
MULES: Solving for alpha.water
Phase-1 volume fraction = 0.40027  Min(alpha.water) = 0  Max(alpha.water) = 1
MULES: Solving for alpha.water
Phase-1 volume fraction = 0.400272  Min(alpha.water) = 0  Max(alpha.water) = 1
DICPCG:  Solving for p_rgh, Initial residual = 0.0686425, Final residual = 0.00203628, No Iterations 2
time step continuity errors : sum local = 1.11275e-05, global = -1.86598e-09, cumulative = -6.67716e-08
DICPCG:  Solving for p_rgh, Initial residual = 0.0028988, Final residual = 0.00014325, No Iterations 26
time step continuity errors : sum local = 8.09581e-07, global = -3.75874e-09, cumulative = -7.05304e-08
DICPCG:  Solving for p_rgh, Initial residual = 0.000650224, Final residual = 8.6386e-08, No Iterations 178
time step continuity errors : sum local = 4.81881e-10, global = -2.57653e-12, cumulative = -7.0533e-08
ExecutionTime = 31.39 s  ClockTime = 32 s

Courant Number mean: 0.00320453 max: 0.226492
Interface Courant Number mean: 0.000341883 max: 0.226492
deltaT = 2.34718e-05
Time = 0.00423001

PIMPLE: iteration 1
MULES: Solving for alpha.water
Phase-1 volume fraction = 0.400274  Min(alpha.water) = 0  Max(alpha.water) = 1
MULES: Solving for alpha.water
Phase-1 volume fraction = 0.400276  Min(alpha.water) = 0  Max(alpha.water) = 1
DICPCG:  Solving for p_rgh, Initial residual = 0.0574935, Final residual = 0.00203985, No Iterations 2
time step continuity errors : sum local = 9.64353e-06, global = 1.80915e-09, cumulative = -6.87238e-08
DICPCG:  Solving for p_rgh, Initial residual = 0.00286346, Final residual = 0.000143066, No Iterations 32
time step continuity errors : sum local = 6.94076e-07, global = 1.32612e-09, cumulative = -6.73977e-08
DICPCG:  Solving for p_rgh, Initial residual = 0.000518863, Final residual = 9.23973e-08, No Iterations 174
time step continuity errors : sum local = 4.52102e-10, global = 5.96901e-12, cumulative = -6.73917e-08
ExecutionTime = 31.48 s  ClockTime = 32 s

Courant Number mean: 0.00303352 max: 0.247664
Interface Courant Number mean: 0.000328955 max: 0.247664
deltaT = 1.89524e-05
Time = 0.00424896

PIMPLE: iteration 1
MULES: Solving for alpha.water
Phase-1 volume fraction = 0.400277  Min(alpha.water) = 0  Max(alpha.water) = 1
MULES: Solving for alpha.water
Phase-1 volume fraction = 0.400278  Min(alpha.water) = 0  Max(alpha.water) = 1
DICPCG:  Solving for p_rgh, Initial residual = 0.0473225, Final residual = 0.00145867, No Iterations 2
time step continuity errors : sum local = 5.38967e-06, global = 3.34904e-10, cumulative = -6.70568e-08
DICPCG:  Solving for p_rgh, Initial residual = 0.00203127, Final residual = 0.000100857, No Iterations 9
time step continuity errors : sum local = 3.80989e-07, global = -6.66649e-10, cumulative = -6.77235e-08
DICPCG:  Solving for p_rgh, Initial residual = 0.00029313, Final residual = 9.49705e-08, No Iterations 160
time step continuity errors : sum local = 3.59267e-10, global = -6.63082e-12, cumulative = -6.77301e-08
ExecutionTime = 31.56 s  ClockTime = 32 s

Courant Number mean: 0.00254847 max: 0.215894
Interface Courant Number mean: 0.00027838 max: 0.215894
deltaT = 1.7556e-05
Time = 0.00426652

PIMPLE: iteration 1
MULES: Solving for alpha.water
Phase-1 volume fraction = 0.40028  Min(alpha.water) = 0  Max(alpha.water) = 1
MULES: Solving for alpha.water
Phase-1 volume fraction = 0.400281  Min(alpha.water) = 0  Max(alpha.water) = 1
DICPCG:  Solving for p_rgh, Initial residual = 0.0429899, Final residual = 0.00108322, No Iterations 2
time step continuity errors : sum local = 3.70568e-06, global = 1.06635e-09, cumulative = -6.66638e-08
DICPCG:  Solving for p_rgh, Initial residual = 0.0015033, Final residual = 7.16723e-05, No Iterations 8
time step continuity errors : sum local = 2.49966e-07, global = 4.23896e-10, cumulative = -6.62399e-08
DICPCG:  Solving for p_rgh, Initial residual = 0.000227795, Final residual = 9.77256e-08, No Iterations 144
time step continuity errors : sum local = 3.40975e-10, global = -9.87395e-13, cumulative = -6.62408e-08
ExecutionTime = 31.63 s  ClockTime = 32 s

Courant Number mean: 0.00244035 max: 0.21355
Interface Courant Number mean: 0.000268285 max: 0.21355
deltaT = 1.64391e-05
Time = 0.00428295

PIMPLE: iteration 1
MULES: Solving for alpha.water
Phase-1 volume fraction = 0.400282  Min(alpha.water) = 0  Max(alpha.water) = 1
MULES: Solving for alpha.water
Phase-1 volume fraction = 0.400283  Min(alpha.water) = 0  Max(alpha.water) = 1
DICPCG:  Solving for p_rgh, Initial residual = 0.0399001, Final residual = 0.000952123, No Iterations 2
time step continuity errors : sum local = 3.03282e-06, global = 7.59631e-10, cumulative = -6.54812e-08
DICPCG:  Solving for p_rgh, Initial residual = 0.0013139, Final residual = 6.32624e-05, No Iterations 7
time step continuity errors : sum local = 2.0516e-07, global = 1.60278e-10, cumulative = -6.53209e-08
DICPCG:  Solving for p_rgh, Initial residual = 0.000191258, Final residual = 9.11588e-08, No Iterations 118
time step continuity errors : sum local = 2.9569e-10, global = 4.13266e-11, cumulative = -6.52796e-08
ExecutionTime = 31.7 s  ClockTime = 32 s

Courant Number mean: 0.00234594 max: 0.209696
Interface Courant Number mean: 0.00026309 max: 0.209696
deltaT = 1.5678e-05
Time = 0.00429863

PIMPLE: iteration 1
MULES: Solving for alpha.water
Phase-1 volume fraction = 0.400284  Min(alpha.water) = 0  Max(alpha.water) = 1
MULES: Solving for alpha.water
Phase-1 volume fraction = 0.400285  Min(alpha.water) = 0  Max(alpha.water) = 1
DICPCG:  Solving for p_rgh, Initial residual = 0.0370638, Final residual = 0.00184992, No Iterations 1
time step continuity errors : sum local = 5.6568e-06, global = 7.65292e-10, cumulative = -6.45143e-08
DICPCG:  Solving for p_rgh, Initial residual = 0.00213104, Final residual = 7.72003e-05, No Iterations 6
time step continuity errors : sum local = 2.39729e-07, global = 2.87472e-10, cumulative = -6.42268e-08
DICPCG:  Solving for p_rgh, Initial residual = 0.000286527, Final residual = 9.5679e-08, No Iterations 174
time step continuity errors : sum local = 2.97347e-10, global = -6.65804e-13, cumulative = -6.42275e-08
ExecutionTime = 31.78 s  ClockTime = 32 s

Courant Number mean: 0.00228544 max: 0.206399
Interface Courant Number mean: 0.000262993 max: 0.206399
deltaT = 1.51882e-05
Time = 0.00431382

PIMPLE: iteration 1
MULES: Solving for alpha.water
Phase-1 volume fraction = 0.400286  Min(alpha.water) = 0  Max(alpha.water) = 1
MULES: Solving for alpha.water
Phase-1 volume fraction = 0.400287  Min(alpha.water) = 0  Max(alpha.water) = 1
DICPCG:  Solving for p_rgh, Initial residual = 0.0345007, Final residual = 0.00160071, No Iterations 1
time step continuity errors : sum local = 4.71905e-06, global = 5.59294e-10, cumulative = -6.36682e-08
DICPCG:  Solving for p_rgh, Initial residual = 0.00185788, Final residual = 8.88882e-05, No Iterations 9
time step continuity errors : sum local = 2.65732e-07, global = 1.08496e-10, cumulative = -6.35597e-08
DICPCG:  Solving for p_rgh, Initial residual = 0.000260468, Final residual = 9.05884e-08, No Iterations 173
time step continuity errors : sum local = 2.70699e-10, global = 5.26327e-12, cumulative = -6.35545e-08
ExecutionTime = 31.87 s  ClockTime = 32 s

Courant Number mean: 0.00225248 max: 0.203563
Interface Courant Number mean: 0.000259963 max: 0.203563
deltaT = 1.49204e-05
Time = 0.00432874

PIMPLE: iteration 1
MULES: Solving for alpha.water
Phase-1 volume fraction = 0.400288  Min(alpha.water) = 0  Max(alpha.water) = 1
MULES: Solving for alpha.water
Phase-1 volume fraction = 0.400289  Min(alpha.water) = 0  Max(alpha.water) = 1
DICPCG:  Solving for p_rgh, Initial residual = 0.0325017, Final residual = 0.00148287, No Iterations 1
time step continuity errors : sum local = 4.24327e-06, global = 5.93283e-10, cumulative = -6.29612e-08
DICPCG:  Solving for p_rgh, Initial residual = 0.00173766, Final residual = 7.2279e-05, No Iterations 6
time step continuity errors : sum local = 2.09522e-07, global = 2.61327e-10, cumulative = -6.26998e-08
DICPCG:  Solving for p_rgh, Initial residual = 0.00023724, Final residual = 8.78482e-08, No Iterations 172
time step continuity errors : sum local = 2.54803e-10, global = 4.20486e-12, cumulative = -6.26956e-08
ExecutionTime = 31.96 s  ClockTime = 32 s

Courant Number mean: 0.00224333 max: 0.201262
Interface Courant Number mean: 0.000259484 max: 0.201262
deltaT = 1.48235e-05
Time = 0.00434356

PIMPLE: iteration 1
MULES: Solving for alpha.water
Phase-1 volume fraction = 0.400291  Min(alpha.water) = 0  Max(alpha.water) = 1
MULES: Solving for alpha.water
Phase-1 volume fraction = 0.400292  Min(alpha.water) = 0  Max(alpha.water) = 1
DICPCG:  Solving for p_rgh, Initial residual = 0.0306329, Final residual = 0.00138021, No Iterations 1
time step continuity errors : sum local = 3.92166e-06, global = 4.50384e-10, cumulative = -6.22453e-08
DICPCG:  Solving for p_rgh, Initial residual = 0.00163581, Final residual = 7.02835e-05, No Iterations 6
time step continuity errors : sum local = 2.02208e-07, global = 1.291e-10, cumulative = -6.21162e-08
DICPCG:  Solving for p_rgh, Initial residual = 0.000222447, Final residual = 9.14632e-08, No Iterations 137
time step continuity errors : sum local = 2.6326e-10, global = 6.84289e-12, cumulative = -6.21093e-08
ExecutionTime = 32.03 s  ClockTime = 33 s

Courant Number mean: 0.00225476 max: 0.199932
Interface Courant Number mean: 0.000261314 max: 0.199932
deltaT = 1.48283e-05
Time = 0.00435839

PIMPLE: iteration 1
MULES: Solving for alpha.water
Phase-1 volume fraction = 0.400293  Min(alpha.water) = 0  Max(alpha.water) = 1
MULES: Solving for alpha.water
Phase-1 volume fraction = 0.400294  Min(alpha.water) = 0  Max(alpha.water) = 1
DICPCG:  Solving for p_rgh, Initial residual = 0.0285969, Final residual = 0.00129171, No Iterations 1
time step continuity errors : sum local = 3.67901e-06, global = 4.4094e-10, cumulative = -6.16684e-08
DICPCG:  Solving for p_rgh, Initial residual = 0.00155011, Final residual = 6.91715e-05, No Iterations 9
time step continuity errors : sum local = 1.99421e-07, global = 1.70958e-10, cumulative = -6.14974e-08
DICPCG:  Solving for p_rgh, Initial residual = 0.000203518, Final residual = 8.98067e-08, No Iterations 138
time step continuity errors : sum local = 2.5881e-10, global = -3.29766e-11, cumulative = -6.15304e-08
ExecutionTime = 32.11 s  ClockTime = 33 s

Courant Number mean: 0.00227742 max: 0.199931
Interface Courant Number mean: 0.000264896 max: 0.199931
deltaT = 1.48332e-05
Time = 0.00437323

PIMPLE: iteration 1
MULES: Solving for alpha.water
Phase-1 volume fraction = 0.400295  Min(alpha.water) = 0  Max(alpha.water) = 1
MULES: Solving for alpha.water
Phase-1 volume fraction = 0.400296  Min(alpha.water) = 0  Max(alpha.water) = 1
DICPCG:  Solving for p_rgh, Initial residual = 0.0258481, Final residual = 0.00118079, No Iterations 1
time step continuity errors : sum local = 3.37505e-06, global = 3.004e-10, cumulative = -6.123e-08
DICPCG:  Solving for p_rgh, Initial residual = 0.00146006, Final residual = 7.10931e-05, No Iterations 10
time step continuity errors : sum local = 2.05738e-07, global = 7.0685e-11, cumulative = -6.11593e-08
DICPCG:  Solving for p_rgh, Initial residual = 0.000191614, Final residual = 7.45955e-08, No Iterations 172
time step continuity errors : sum local = 2.16401e-10, global = -2.28518e-12, cumulative = -6.11616e-08
ExecutionTime = 32.19 s  ClockTime = 33 s

Courant Number mean: 0.00229716 max: 0.198742
Interface Courant Number mean: 0.000260737 max: 0.198742
deltaT = 1.49253e-05
Time = 0.00438815

PIMPLE: iteration 1
MULES: Solving for alpha.water
Phase-1 volume fraction = 0.400297  Min(alpha.water) = 0  Max(alpha.water) = 1
MULES: Solving for alpha.water
Phase-1 volume fraction = 0.400298  Min(alpha.water) = 0  Max(alpha.water) = 1
DICPCG:  Solving for p_rgh, Initial residual = 0.0228612, Final residual = 0.00105556, No Iterations 1
time step continuity errors : sum local = 3.12447e-06, global = 3.42778e-10, cumulative = -6.08188e-08
DICPCG:  Solving for p_rgh, Initial residual = 0.00135502, Final residual = 6.60524e-05, No Iterations 13
time step continuity errors : sum local = 1.97723e-07, global = 2.18156e-10, cumulative = -6.06007e-08
DICPCG:  Solving for p_rgh, Initial residual = 0.000180034, Final residual = 9.43331e-08, No Iterations 139
time step continuity errors : sum local = 2.83323e-10, global = -5.87414e-11, cumulative = -6.06594e-08
ExecutionTime = 32.26 s  ClockTime = 33 s

Courant Number mean: 0.00232728 max: 0.198167
Interface Courant Number mean: 0.00024899 max: 0.198167
deltaT = 1.50634e-05
Time = 0.00440321

PIMPLE: iteration 1
MULES: Solving for alpha.water
Phase-1 volume fraction = 0.400299  Min(alpha.water) = 0  Max(alpha.water) = 1
MULES: Solving for alpha.water
Phase-1 volume fraction = 0.4003  Min(alpha.water) = 0  Max(alpha.water) = 1
DICPCG:  Solving for p_rgh, Initial residual = 0.0202619, Final residual = 0.000958087, No Iterations 1
time step continuity errors : sum local = 2.94936e-06, global = 7.25674e-11, cumulative = -6.05868e-08
DICPCG:  Solving for p_rgh, Initial residual = 0.00127993, Final residual = 6.10905e-05, No Iterations 14
time step continuity errors : sum local = 1.89867e-07, global = -8.08115e-12, cumulative = -6.05949e-08
