/*---------------------------------------------------------------------------*\
| =========                 |                                                 |
| \\      /  F ield         | OpenFOAM: The Open Source CFD Toolbox           |
|  \\    /   O peration     | Version:  3.0.1                                 |
|   \\  /    A nd           | Web:      www.OpenFOAM.org                      |
|    \\/     M anipulation  |                                                 |
\*---------------------------------------------------------------------------*/
Build  : 3.0.1-d8a290b55d28
Exec   : interFoam -parallel
Date   : May 20 2016
Time   : 15:13:56
Host   : "evankielley-VirtualBox"
PID    : 3135
Case   : /home/evankielley/OpenFOAM/evankielley-3.0.1/run/tutorials/multiphase/interFoam/laminar/damBreakFine
nProcs : 4
Slaves : 
3
(
"evankielley-VirtualBox.3136"
"evankielley-VirtualBox.3137"
"evankielley-VirtualBox.3138"
)

Pstream initialized with:
    floatTransfer      : 0
    nProcsSimpleSum    : 0
    commsType          : nonBlocking
    polling iterations : 0
sigFpe : Enabling floating point exception trapping (FOAM_SIGFPE).
fileModificationChecking : Monitoring run-time modified files using timeStampMaster
allowSystemOperations : Allowing user-supplied system call operations

// * * * * * * * * * * * * * * * * * * * * * * * * * * * * * * * * * * * * * //
Create time

Create mesh for time = 0


PIMPLE: Operating solver in PISO mode

Reading field p_rgh

Reading field U

Reading/calculating face flux field phi

Reading transportProperties

Selecting incompressible transport model Newtonian
Selecting incompressible transport model Newtonian
Selecting turbulence model type laminar

Reading g

Reading hRef
Calculating field g.h

No MRF models present

No finite volume options present

DICPCG:  Solving for pcorr, Initial residual = 0, Final residual = 0, No Iterations 0
time step continuity errors : sum local = 0, global = 0, cumulative = 0
Courant Number mean: 0 max: 0

Starting time loop

Courant Number mean: 0 max: 0
Interface Courant Number mean: 0 max: 0
deltaT = 0.000595238
Time = 0.000595238

PIMPLE: iteration 1
smoothSolver:  Solving for alpha.water, Initial residual = 0, Final residual = 0, No Iterations 0
Phase-1 volume fraction = 0.124752  Min(alpha.water) = 0  Max(alpha.water) = 1
MULES: Correcting alpha.water
MULES: Correcting alpha.water
Phase-1 volume fraction = 0.124752  Min(alpha.water) = 0  Max(alpha.water) = 1
DICPCG:  Solving for p_rgh, Initial residual = 1, Final residual = 0.00343202, No Iterations 1
time step continuity errors : sum local = 0.000438488, global = -7.96522e-20, cumulative = -7.96522e-20
DICPCG:  Solving for p_rgh, Initial residual = 0.00166917, Final residual = 5.85041e-05, No Iterations 26
time step continuity errors : sum local = 1.53728e-05, global = -2.05847e-06, cumulative = -2.05847e-06
DICPCG:  Solving for p_rgh, Initial residual = 4.9041e-05, Final residual = 9.95873e-08, No Iterations 94
time step continuity errors : sum local = 3.13164e-08, global = 1.8666e-09, cumulative = -2.0566e-06
ExecutionTime = 0.06 s  ClockTime = 0 s

Courant Number mean: 0.000341629 max: 0.05318
Interface Courant Number mean: 0 max: 0
deltaT = 0.000705782
Time = 0.00130102

PIMPLE: iteration 1
smoothSolver:  Solving for alpha.water, Initial residual = 4.17697e-05, Final residual = 9.8567e-10, No Iterations 1
Phase-1 volume fraction = 0.124752  Min(alpha.water) = 0  Max(alpha.water) = 1
MULES: Correcting alpha.water
MULES: Correcting alpha.water
Phase-1 volume fraction = 0.124752  Min(alpha.water) = -4.09276e-13  Max(alpha.water) = 1
DICPCG:  Solving for p_rgh, Initial residual = 0.0013341, Final residual = 4.72266e-05, No Iterations 2
time step continuity errors : sum local = 1.91973e-05, global = 6.17367e-09, cumulative = -2.05043e-06
DICPCG:  Solving for p_rgh, Initial residual = 6.19297e-05, Final residual = 2.73625e-06, No Iterations 72
time step continuity errors : sum local = 1.11239e-06, global = 8.05687e-09, cumulative = -2.04237e-06
DICPCG:  Solving for p_rgh, Initial residual = 3.86407e-06, Final residual = 9.05336e-08, No Iterations 35
time step continuity errors : sum local = 3.68001e-08, global = 7.6272e-09, cumulative = -2.03475e-06
ExecutionTime = 0.08 s  ClockTime = 0 s

Courant Number mean: 0.000675918 max: 0.0332477
Interface Courant Number mean: 8.02438e-06 max: 0.0314535
deltaT = 0.000839638
Time = 0.00214066

PIMPLE: iteration 1
smoothSolver:  Solving for alpha.water, Initial residual = 3.76695e-05, Final residual = 4.14009e-10, No Iterations 1
Phase-1 volume fraction = 0.124752  Min(alpha.water) = 0  Max(alpha.water) = 1
MULES: Correcting alpha.water
MULES: Correcting alpha.water
Phase-1 volume fraction = 0.124752  Min(alpha.water) = -1.84139e-11  Max(alpha.water) = 1
DICPCG:  Solving for p_rgh, Initial residual = 0.00113865, Final residual = 3.1531e-05, No Iterations 2
time step continuity errors : sum local = 1.6556e-05, global = 1.74262e-08, cumulative = -2.01732e-06
DICPCG:  Solving for p_rgh, Initial residual = 3.19044e-05, Final residual = 1.585e-06, No Iterations 65
time step continuity errors : sum local = 8.32059e-07, global = -4.75486e-08, cumulative = -2.06487e-06
DICPCG:  Solving for p_rgh, Initial residual = 1.68514e-06, Final residual = 8.45319e-08, No Iterations 67
time step continuity errors : sum local = 4.43817e-08, global = -1.77691e-09, cumulative = -2.06664e-06
ExecutionTime = 0.11 s  ClockTime = 0 s

Courant Number mean: 0.00126346 max: 0.0294545
Interface Courant Number mean: 6.66209e-06 max: 0.0271946
deltaT = 0.00099707
Time = 0.00313773

PIMPLE: iteration 1
smoothSolver:  Solving for alpha.water, Initial residual = 5.16217e-05, Final residual = 8.21523e-10, No Iterations 1
Phase-1 volume fraction = 0.124752  Min(alpha.water) = 0  Max(alpha.water) = 1
MULES: Correcting alpha.water
MULES: Correcting alpha.water
Phase-1 volume fraction = 0.124752  Min(alpha.water) = 0  Max(alpha.water) = 1
DICPCG:  Solving for p_rgh, Initial residual = 0.00157836, Final residual = 3.07256e-05, No Iterations 2
time step continuity errors : sum local = 2.06278e-05, global = -1.6787e-08, cumulative = -2.08343e-06
DICPCG:  Solving for p_rgh, Initial residual = 3.09511e-05, Final residual = 1.42e-06, No Iterations 25
time step continuity errors : sum local = 9.52661e-07, global = -1.05791e-07, cumulative = -2.18922e-06
DICPCG:  Solving for p_rgh, Initial residual = 1.50137e-06, Final residual = 9.14821e-08, No Iterations 67
time step continuity errors : sum local = 6.13793e-08, global = 3.40101e-09, cumulative = -2.18582e-06
ExecutionTime = 0.15 s  ClockTime = 0 s

Courant Number mean: 0.00218095 max: 0.0354622
Interface Courant Number mean: 1.10657e-05 max: 0.0307483
deltaT = 0.00117156
Time = 0.00430928

PIMPLE: iteration 1
smoothSolver:  Solving for alpha.water, Initial residual = 7.85553e-05, Final residual = 2.30094e-09, No Iterations 1
Phase-1 volume fraction = 0.124752  Min(alpha.water) = 0  Max(alpha.water) = 1
MULES: Correcting alpha.water
MULES: Correcting alpha.water
Phase-1 volume fraction = 0.124752  Min(alpha.water) = -2.83409e-11  Max(alpha.water) = 1
DICPCG:  Solving for p_rgh, Initial residual = 0.00246776, Final residual = 0.000119982, No Iterations 1
time step continuity errors : sum local = 0.000101867, global = 1.25409e-08, cumulative = -2.17328e-06
DICPCG:  Solving for p_rgh, Initial residual = 0.00012122, Final residual = 5.51874e-06, No Iterations 7
time step continuity errors : sum local = 4.67947e-06, global = 1.16498e-08, cumulative = -2.16163e-06
DICPCG:  Solving for p_rgh, Initial residual = 5.74664e-06, Final residual = 9.30264e-08, No Iterations 81
time step continuity errors : sum local = 7.88736e-08, global = 4.98286e-09, cumulative = -2.15665e-06
ExecutionTime = 0.17 s  ClockTime = 0 s

Courant Number mean: 0.00351466 max: 0.0448132
Interface Courant Number mean: 3.73723e-05 max: 0.0417304
deltaT = 0.00138457
Time = 0.00569385

PIMPLE: iteration 1
smoothSolver:  Solving for alpha.water, Initial residual = 0.000119802, Final residual = 8.26479e-09, No Iterations 1
Phase-1 volume fraction = 0.124752  Min(alpha.water) = 0  Max(alpha.water) = 1
MULES: Correcting alpha.water
MULES: Correcting alpha.water
Phase-1 volume fraction = 0.124752  Min(alpha.water) = -2.53437e-10  Max(alpha.water) = 1
DICPCG:  Solving for p_rgh, Initial residual = 0.00384281, Final residual = 0.000146207, No Iterations 1
time step continuity errors : sum local = 0.000161199, global = 8.53393e-09, cumulative = -2.14811e-06
DICPCG:  Solving for p_rgh, Initial residual = 0.00014748, Final residual = 6.71939e-06, No Iterations 7
time step continuity errors : sum local = 7.39142e-06, global = 6.07852e-09, cumulative = -2.14204e-06
DICPCG:  Solving for p_rgh, Initial residual = 7.12847e-06, Final residual = 9.90009e-08, No Iterations 81
time step continuity errors : sum local = 1.08893e-07, global = 7.48146e-09, cumulative = -2.13455e-06
ExecutionTime = 0.21 s  ClockTime = 0 s

Courant Number mean: 0.00548951 max: 0.0628693
Interface Courant Number mean: 0.000101427 max: 0.0628693
deltaT = 0.00164097
Time = 0.00733482

PIMPLE: iteration 1
smoothSolver:  Solving for alpha.water, Initial residual = 0.000180386, Final residual = 2.52142e-13, No Iterations 2
Phase-1 volume fraction = 0.124752  Min(alpha.water) = 0  Max(alpha.water) = 1
MULES: Correcting alpha.water
MULES: Correcting alpha.water
Phase-1 volume fraction = 0.124752  Min(alpha.water) = -1.20496e-09  Max(alpha.water) = 1
DICPCG:  Solving for p_rgh, Initial residual = 0.0058878, Final residual = 0.000174248, No Iterations 1
time step continuity errors : sum local = 0.000254311, global = 1.44626e-08, cumulative = -2.12009e-06
DICPCG:  Solving for p_rgh, Initial residual = 0.000175784, Final residual = 8.32723e-06, No Iterations 7
time step continuity errors : sum local = 1.21082e-05, global = 1.13707e-08, cumulative = -2.10872e-06
DICPCG:  Solving for p_rgh, Initial residual = 9.13576e-06, Final residual = 8.56474e-08, No Iterations 86
time step continuity errors : sum local = 1.24522e-07, global = 6.9421e-09, cumulative = -2.10178e-06
ExecutionTime = 0.23 s  ClockTime = 0 s

Courant Number mean: 0.00838754 max: 0.095211
Interface Courant Number mean: 0.000177757 max: 0.095211
deltaT = 0.00193933
Time = 0.00927415

PIMPLE: iteration 1
smoothSolver:  Solving for alpha.water, Initial residual = 0.000266934, Final residual = 1.36698e-12, No Iterations 2
Phase-1 volume fraction = 0.124752  Min(alpha.water) = 0  Max(alpha.water) = 1
MULES: Correcting alpha.water
MULES: Correcting alpha.water
Phase-1 volume fraction = 0.124752  Min(alpha.water) = -4.31994e-09  Max(alpha.water) = 1
DICPCG:  Solving for p_rgh, Initial residual = 0.00883723, Final residual = 0.000204366, No Iterations 1
time step continuity errors : sum local = 0.000396212, global = 1.23573e-08, cumulative = -2.08942e-06
DICPCG:  Solving for p_rgh, Initial residual = 0.000206492, Final residual = 8.93511e-06, No Iterations 8
time step continuity errors : sum local = 1.72269e-05, global = 7.4755e-09, cumulative = -2.08195e-06
DICPCG:  Solving for p_rgh, Initial residual = 1.11431e-05, Final residual = 9.75307e-08, No Iterations 86
time step continuity errors : sum local = 1.88019e-07, global = 1.1827e-08, cumulative = -2.07012e-06
ExecutionTime = 0.26 s  ClockTime = 0 s

Courant Number mean: 0.0125515 max: 0.142455
Interface Courant Number mean: 0.000293576 max: 0.142455
deltaT = 0.00226255
Time = 0.0115367

PIMPLE: iteration 1
smoothSolver:  Solving for alpha.water, Initial residual = 0.000384903, Final residual = 6.43406e-12, No Iterations 2
Phase-1 volume fraction = 0.124752  Min(alpha.water) = 0  Max(alpha.water) = 1
MULES: Correcting alpha.water
MULES: Correcting alpha.water
Phase-1 volume fraction = 0.124752  Min(alpha.water) = -4.75688e-08  Max(alpha.water) = 1
DICPCG:  Solving for p_rgh, Initial residual = 0.0128425, Final residual = 0.000230087, No Iterations 1
time step continuity errors : sum local = 0.000580571, global = 3.16518e-08, cumulative = -2.03847e-06
DICPCG:  Solving for p_rgh, Initial residual = 0.000233483, Final residual = 1.06765e-05, No Iterations 8
time step continuity errors : sum local = 2.67272e-05, global = 2.06213e-08, cumulative = -2.01785e-06
DICPCG:  Solving for p_rgh, Initial residual = 1.48262e-05, Final residual = 9.22171e-08, No Iterations 87
time step continuity errors : sum local = 2.30831e-07, global = 1.71715e-08, cumulative = -2.00067e-06
ExecutionTime = 0.29 s  ClockTime = 0 s

Courant Number mean: 0.0182493 max: 0.205485
Interface Courant Number mean: 0.000465154 max: 0.205485
deltaT = 0.00256422
Time = 0.0141009

PIMPLE: iteration 1
smoothSolver:  Solving for alpha.water, Initial residual = 0.000532256, Final residual = 2.43879e-11, No Iterations 2
Phase-1 volume fraction = 0.124752  Min(alpha.water) = 0  Max(alpha.water) = 1
MULES: Correcting alpha.water
MULES: Correcting alpha.water
Phase-1 volume fraction = 0.124752  Min(alpha.water) = -2.80122e-08  Max(alpha.water) = 1
DICPCG:  Solving for p_rgh, Initial residual = 0.0178151, Final residual = 0.000245198, No Iterations 1
time step continuity errors : sum local = 0.000760986, global = 4.74542e-08, cumulative = -1.95322e-06
DICPCG:  Solving for p_rgh, Initial residual = 0.00025082, Final residual = 1.21951e-05, No Iterations 8
time step continuity errors : sum local = 3.74294e-05, global = 2.84504e-08, cumulative = -1.92477e-06
DICPCG:  Solving for p_rgh, Initial residual = 1.93521e-05, Final residual = 8.99544e-08, No Iterations 87
time step continuity errors : sum local = 2.76069e-07, global = 1.87034e-08, cumulative = -1.90607e-06
ExecutionTime = 0.32 s  ClockTime = 0 s

Courant Number mean: 0.0252893 max: 0.267837
Interface Courant Number mean: 0.000699508 max: 0.267837
deltaT = 0.00299159
Time = 0.0170925

PIMPLE: iteration 1
smoothSolver:  Solving for alpha.water, Initial residual = 0.000747542, Final residual = 9.22474e-11, No Iterations 2
Phase-1 volume fraction = 0.124752  Min(alpha.water) = 0  Max(alpha.water) = 1
MULES: Correcting alpha.water
MULES: Correcting alpha.water
Phase-1 volume fraction = 0.124752  Min(alpha.water) = -6.04162e-08  Max(alpha.water) = 1
DICPCG:  Solving for p_rgh, Initial residual = 0.0251112, Final residual = 0.000273833, No Iterations 1
time step continuity errors : sum local = 0.00109755, global = 6.47286e-08, cumulative = -1.84134e-06
DICPCG:  Solving for p_rgh, Initial residual = 0.000284657, Final residual = 1.37357e-05, No Iterations 12
time step continuity errors : sum local = 5.4174e-05, global = 5.32285e-08, cumulative = -1.78811e-06
DICPCG:  Solving for p_rgh, Initial residual = 2.62098e-05, Final residual = 8.92683e-08, No Iterations 50
time step continuity errors : sum local = 3.52159e-07, global = -1.24324e-07, cumulative = -1.91243e-06
ExecutionTime = 0.34 s  ClockTime = 0 s

Courant Number mean: 0.0357196 max: 0.3332
Interface Courant Number mean: 0.00100575 max: 0.3332
deltaT = 0.00329075
Time = 0.0203833

PIMPLE: iteration 1
smoothSolver:  Solving for alpha.water, Initial residual = 0.000988048, Final residual = 4.69616e-09, No Iterations 2
Phase-1 volume fraction = 0.124752  Min(alpha.water) = 0  Max(alpha.water) = 1
MULES: Correcting alpha.water
MULES: Correcting alpha.water
Phase-1 volume fraction = 0.124752  Min(alpha.water) = -4.50049e-08  Max(alpha.water) = 1
DICPCG:  Solving for p_rgh, Initial residual = 0.0333876, Final residual = 0.000301479, No Iterations 1
time step continuity errors : sum local = 0.00137816, global = -2.47894e-07, cumulative = -2.16033e-06
DICPCG:  Solving for p_rgh, Initial residual = 0.00031964, Final residual = 1.57091e-05, No Iterations 15
time step continuity errors : sum local = 7.02373e-05, global = 1.39774e-07, cumulative = -2.02055e-06
DICPCG:  Solving for p_rgh, Initial residual = 3.26756e-05, Final residual = 9.0455e-08, No Iterations 81
time step continuity errors : sum local = 4.04801e-07, global = 1.12688e-08, cumulative = -2.00928e-06
ExecutionTime = 0.36 s  ClockTime = 0 s

Courant Number mean: 0.0467659 max: 0.417012
Interface Courant Number mean: 0.00136888 max: 0.387231
deltaT = 0.00370209
Time = 0.0240853

PIMPLE: iteration 1
smoothSolver:  Solving for alpha.water, Initial residual = 0.00131194, Final residual = 1.34529e-12, No Iterations 3
Phase-1 volume fraction = 0.124752  Min(alpha.water) = 0  Max(alpha.water) = 1
MULES: Correcting alpha.water
MULES: Correcting alpha.water
Phase-1 volume fraction = 0.124752  Min(alpha.water) = -7.40001e-08  Max(alpha.water) = 1
DICPCG:  Solving for p_rgh, Initial residual = 0.0450029, Final residual = 0.00035738, No Iterations 1
time step continuity errors : sum local = 0.00191534, global = 2.98055e-07, cumulative = -1.71123e-06
DICPCG:  Solving for p_rgh, Initial residual = 0.000390049, Final residual = 1.57484e-05, No Iterations 16
time step continuity errors : sum local = 8.18357e-05, global = 1.50213e-06, cumulative = -2.09103e-07
DICPCG:  Solving for p_rgh, Initial residual = 4.66129e-05, Final residual = 9.91001e-08, No Iterations 49
time step continuity errors : sum local = 5.15817e-07, global = 2.24831e-08, cumulative = -1.8662e-07
ExecutionTime = 0.39 s  ClockTime = 0 s

Courant Number mean: 0.0619922 max: 0.524245
Interface Courant Number mean: 0.00192873 max: 0.488261
deltaT = 0.00431911
Time = 0.0284045

PIMPLE: iteration 1
smoothSolver:  Solving for alpha.water, Initial residual = 0.00178676, Final residual = 6.01857e-10, No Iterations 3
Phase-1 volume fraction = 0.124752  Min(alpha.water) = 0  Max(alpha.water) = 1
MULES: Correcting alpha.water
MULES: Correcting alpha.water
Phase-1 volume fraction = 0.124752  Min(alpha.water) = -2.98361e-08  Max(alpha.water) = 1
DICPCG:  Solving for p_rgh, Initial residual = 0.0616677, Final residual = 0.000488613, No Iterations 1
time step continuity errors : sum local = 0.00320434, global = 2.06192e-07, cumulative = 1.95722e-08
DICPCG:  Solving for p_rgh, Initial residual = 0.000554629, Final residual = 2.49894e-05, No Iterations 16
time step continuity errors : sum local = 0.000156654, global = 2.98871e-06, cumulative = 3.00828e-06
DICPCG:  Solving for p_rgh, Initial residual = 8.05644e-05, Final residual = 9.72286e-08, No Iterations 58
time step continuity errors : sum local = 6.11328e-07, global = -2.38621e-07, cumulative = 2.76966e-06
ExecutionTime = 0.41 s  ClockTime = 0 s

Courant Number mean: 0.084993 max: 0.705197
Interface Courant Number mean: 0.00294873 max: 0.668334
deltaT = 0.00431911
Time = 0.0327236

PIMPLE: iteration 1
smoothSolver:  Solving for alpha.water, Initial residual = 0.00207566, Final residual = 3.08514e-09, No Iterations 3
Phase-1 volume fraction = 0.124752  Min(alpha.water) = -2.68621e-11  Max(alpha.water) = 1
MULES: Correcting alpha.water
MULES: Correcting alpha.water
Phase-1 volume fraction = 0.124752  Min(alpha.water) = -3.4666e-07  Max(alpha.water) = 1
DICPCG:  Solving for p_rgh, Initial residual = 0.0708329, Final residual = 0.000604778, No Iterations 1
time step continuity errors : sum local = 0.00354131, global = -3.62006e-07, cumulative = 2.40765e-06
DICPCG:  Solving for p_rgh, Initial residual = 0.000700708, Final residual = 2.89408e-05, No Iterations 17
time step continuity errors : sum local = 0.000160676, global = 5.90496e-06, cumulative = 8.31262e-06
DICPCG:  Solving for p_rgh, Initial residual = 0.000103798, Final residual = 9.51667e-08, No Iterations 60
time step continuity errors : sum local = 5.31027e-07, global = -2.05019e-07, cumulative = 8.1076e-06
ExecutionTime = 0.43 s  ClockTime = 0 s

Courant Number mean: 0.0975284 max: 0.795675
Interface Courant Number mean: 0.00416028 max: 0.748852
deltaT = 0.00431911
Time = 0.0370427

PIMPLE: iteration 1
smoothSolver:  Solving for alpha.water, Initial residual = 0.00235724, Final residual = 7.12799e-11, No Iterations 4
Phase-1 volume fraction = 0.124752  Min(alpha.water) = 0  Max(alpha.water) = 1
MULES: Correcting alpha.water
MULES: Correcting alpha.water
Phase-1 volume fraction = 0.124752  Min(alpha.water) = -1.00294e-05  Max(alpha.water) = 1
DICPCG:  Solving for p_rgh, Initial residual = 0.0749881, Final residual = 0.000802013, No Iterations 1
time step continuity errors : sum local = 0.004147, global = -7.1343e-08, cumulative = 8.03626e-06
DICPCG:  Solving for p_rgh, Initial residual = 0.000924982, Final residual = 3.76688e-05, No Iterations 17
time step continuity errors : sum local = 0.000184082, global = 9.724e-06, cumulative = 1.77603e-05
DICPCG:  Solving for p_rgh, Initial residual = 0.000139276, Final residual = 8.48198e-08, No Iterations 60
time step continuity errors : sum local = 4.17438e-07, global = -1.60539e-08, cumulative = 1.77442e-05
ExecutionTime = 0.46 s  ClockTime = 0 s

Courant Number mean: 0.109926 max: 0.872042
Interface Courant Number mean: 0.00491708 max: 0.819236
deltaT = 0.00431911
Time = 0.0413618

PIMPLE: iteration 1
smoothSolver:  Solving for alpha.water, Initial residual = 0.00264304, Final residual = 2.88082e-10, No Iterations 4
Phase-1 volume fraction = 0.124752  Min(alpha.water) = 0  Max(alpha.water) = 1
MULES: Correcting alpha.water
MULES: Correcting alpha.water
Phase-1 volume fraction = 0.124752  Min(alpha.water) = -2.2998e-07  Max(alpha.water) = 1.00008
DICPCG:  Solving for p_rgh, Initial residual = 0.072447, Final residual = 0.0011119, No Iterations 1
time step continuity errors : sum local = 0.00505568, global = 2.13954e-07, cumulative = 1.79582e-05
DICPCG:  Solving for p_rgh, Initial residual = 0.0012718, Final residual = 5.57768e-05, No Iterations 17
time step continuity errors : sum local = 0.000240251, global = 1.32855e-05, cumulative = 3.12437e-05
DICPCG:  Solving for p_rgh, Initial residual = 0.000197938, Final residual = 9.19154e-08, No Iterations 99
time step continuity errors : sum local = 3.99601e-07, global = -2.1417e-08, cumulative = 3.12223e-05
ExecutionTime = 0.48 s  ClockTime = 0 s

Courant Number mean: 0.122297 max: 0.963925
Interface Courant Number mean: 0.00583219 max: 0.89115
deltaT = 0.00431911
Time = 0.0456809

PIMPLE: iteration 1
smoothSolver:  Solving for alpha.water, Initial residual = 0.00293615, Final residual = 7.80263e-10, No Iterations 4
Phase-1 volume fraction = 0.124752  Min(alpha.water) = 0  Max(alpha.water) = 1
MULES: Correcting alpha.water
MULES: Correcting alpha.water
Phase-1 volume fraction = 0.124752  Min(alpha.water) = -9.71549e-07  Max(alpha.water) = 1.00083
DICPCG:  Solving for p_rgh, Initial residual = 0.0640254, Final residual = 0.00162807, No Iterations 1
time step continuity errors : sum local = 0.00660482, global = -3.25146e-08, cumulative = 3.11897e-05
DICPCG:  Solving for p_rgh, Initial residual = 0.00184326, Final residual = 7.47773e-05, No Iterations 17
time step continuity errors : sum local = 0.000289907, global = 1.96144e-05, cumulative = 5.08041e-05
DICPCG:  Solving for p_rgh, Initial residual = 0.000277052, Final residual = 9.95473e-08, No Iterations 66
time step continuity errors : sum local = 3.90124e-07, global = -4.86345e-08, cumulative = 5.07555e-05
ExecutionTime = 0.5 s  ClockTime = 0 s

Courant Number mean: 0.134611 max: 1.03798
Interface Courant Number mean: 0.00681781 max: 0.985001
deltaT = 0.00215955
Time = 0.0478404

PIMPLE: iteration 1
smoothSolver:  Solving for alpha.water, Initial residual = 0.00160959, Final residual = 2.36732e-09, No Iterations 3
Phase-1 volume fraction = 0.124752  Min(alpha.water) = -1.35297e-08  Max(alpha.water) = 1
MULES: Correcting alpha.water
MULES: Correcting alpha.water
Phase-1 volume fraction = 0.124752  Min(alpha.water) = -1.02049e-06  Max(alpha.water) = 1
DICPCG:  Solving for p_rgh, Initial residual = 0.0340097, Final residual = 0.00125199, No Iterations 1
time step continuity errors : sum local = 0.00130494, global = -1.23729e-07, cumulative = 5.06318e-05
DICPCG:  Solving for p_rgh, Initial residual = 0.00133716, Final residual = 6.24618e-05, No Iterations 16
time step continuity errors : sum local = 6.39678e-05, global = 2.28781e-06, cumulative = 5.29196e-05
DICPCG:  Solving for p_rgh, Initial residual = 0.000140039, Final residual = 9.94747e-08, No Iterations 89
time step continuity errors : sum local = 1.02513e-07, global = -3.36755e-09, cumulative = 5.29162e-05
ExecutionTime = 0.53 s  ClockTime = 0 s

Courant Number mean: 0.070163 max: 0.531232
Interface Courant Number mean: 0.00348459 max: 0.496417
deltaT = 0.00215955
Time = 0.05

PIMPLE: iteration 1
smoothSolver:  Solving for alpha.water, Initial residual = 0.0016791, Final residual = 2.22794e-09, No Iterations 3
Phase-1 volume fraction = 0.124752  Min(alpha.water) = -3.22644e-09  Max(alpha.water) = 1
MULES: Correcting alpha.water
MULES: Correcting alpha.water
Phase-1 volume fraction = 0.124752  Min(alpha.water) = -3.00063e-06  Max(alpha.water) = 1
DICPCG:  Solving for p_rgh, Initial residual = 0.0303907, Final residual = 0.00131548, No Iterations 1
time step continuity errors : sum local = 0.00140436, global = -3.38285e-09, cumulative = 5.29128e-05
DICPCG:  Solving for p_rgh, Initial residual = 0.0014119, Final residual = 6.02101e-05, No Iterations 7
time step continuity errors : sum local = 6.37381e-05, global = -3.52168e-08, cumulative = 5.28776e-05
DICPCG:  Solving for p_rgh, Initial residual = 0.00014782, Final residual = 9.44638e-08, No Iterations 106
time step continuity errors : sum local = 1.00059e-07, global = -3.68706e-09, cumulative = 5.28739e-05
ExecutionTime = 0.57 s  ClockTime = 0 s

Courant Number mean: 0.0731276 max: 0.543712
Interface Courant Number mean: 0.00333688 max: 0.496728
deltaT = 0.0025
Time = 0.0525

PIMPLE: iteration 1
smoothSolver:  Solving for alpha.water, Initial residual = 0.00202193, Final residual = 5.2754e-09, No Iterations 3
Phase-1 volume fraction = 0.124752  Min(alpha.water) = -2.54331e-06  Max(alpha.water) = 1
MULES: Correcting alpha.water
MULES: Correcting alpha.water
Phase-1 volume fraction = 0.124752  Min(alpha.water) = -4.41885e-06  Max(alpha.water) = 1
DICPCG:  Solving for p_rgh, Initial residual = 0.0462805, Final residual = 0.000761815, No Iterations 1
time step continuity errors : sum local = 0.00129418, global = 2.47461e-08, cumulative = 5.28987e-05
DICPCG:  Solving for p_rgh, Initial residual = 0.000849912, Final residual = 3.94507e-05, No Iterations 11
time step continuity errors : sum local = 6.47759e-05, global = -3.51718e-08, cumulative = 5.28635e-05
DICPCG:  Solving for p_rgh, Initial residual = 0.000111532, Final residual = 9.52881e-08, No Iterations 94
time step continuity errors : sum local = 1.5673e-07, global = -4.84363e-10, cumulative = 5.2863e-05
ExecutionTime = 0.59 s  ClockTime = 0 s

Courant Number mean: 0.0887198 max: 0.641863
Interface Courant Number mean: 0.00418008 max: 0.58736
deltaT = 0.00279412
Time = 0.0552941

PIMPLE: iteration 1
smoothSolver:  Solving for alpha.water, Initial residual = 0.00236268, Final residual = 1.40196e-10, No Iterations 4
Phase-1 volume fraction = 0.124752  Min(alpha.water) = -2.09819e-06  Max(alpha.water) = 1
MULES: Correcting alpha.water
MULES: Correcting alpha.water
Phase-1 volume fraction = 0.124752  Min(alpha.water) = -5.12164e-06  Max(alpha.water) = 1.00001
DICPCG:  Solving for p_rgh, Initial residual = 0.0676053, Final residual = 0.000736145, No Iterations 1
time step continuity errors : sum local = 0.00164752, global = 5.84588e-08, cumulative = 5.29215e-05
DICPCG:  Solving for p_rgh, Initial residual = 0.000848747, Final residual = 3.85082e-05, No Iterations 17
time step continuity errors : sum local = 8.13182e-05, global = 3.44988e-06, cumulative = 5.63714e-05
DICPCG:  Solving for p_rgh, Initial residual = 0.000127522, Final residual = 8.97768e-08, No Iterations 60
time step continuity errors : sum local = 1.90708e-07, global = 4.61248e-09, cumulative = 5.6376e-05
ExecutionTime = 0.62 s  ClockTime = 0 s

Courant Number mean: 0.1042 max: 0.753803
Interface Courant Number mean: 0.00520744 max: 0.711273
deltaT = 0.00298039
Time = 0.0582745

PIMPLE: iteration 1
smoothSolver:  Solving for alpha.water, Initial residual = 0.00264957, Final residual = 3.49364e-10, No Iterations 4
Phase-1 volume fraction = 0.124752  Min(alpha.water) = -1.69346e-06  Max(alpha.water) = 1
MULES: Correcting alpha.water
MULES: Correcting alpha.water
Phase-1 volume fraction = 0.124752  Min(alpha.water) = -6.70949e-06  Max(alpha.water) = 1.00005
DICPCG:  Solving for p_rgh, Initial residual = 0.065214, Final residual = 0.00108385, No Iterations 1
time step continuity errors : sum local = 0.0024187, global = 2.67188e-08, cumulative = 5.64027e-05
DICPCG:  Solving for p_rgh, Initial residual = 0.00123818, Final residual = 6.12365e-05, No Iterations 17
time step continuity errors : sum local = 0.00012938, global = 5.55217e-06, cumulative = 6.19549e-05
DICPCG:  Solving for p_rgh, Initial residual = 0.000191402, Final residual = 9.8166e-08, No Iterations 100
time step continuity errors : sum local = 2.0916e-07, global = -2.67327e-09, cumulative = 6.19522e-05
ExecutionTime = 0.64 s  ClockTime = 0 s

Courant Number mean: 0.116898 max: 0.825056
Interface Courant Number mean: 0.00596191 max: 0.815307
deltaT = 0.00320965
Time = 0.0614842

PIMPLE: iteration 1
smoothSolver:  Solving for alpha.water, Initial residual = 0.00299777, Final residual = 9.66295e-10, No Iterations 4
Phase-1 volume fraction = 0.124752  Min(alpha.water) = -1.33217e-06  Max(alpha.water) = 1
MULES: Correcting alpha.water
MULES: Correcting alpha.water
Phase-1 volume fraction = 0.124752  Min(alpha.water) = -2.07908e-05  Max(alpha.water) = 1.00002
DICPCG:  Solving for p_rgh, Initial residual = 0.0589887, Final residual = 0.00165658, No Iterations 1
time step continuity errors : sum local = 0.00383768, global = -9.83405e-09, cumulative = 6.19424e-05
DICPCG:  Solving for p_rgh, Initial residual = 0.00188535, Final residual = 9.07343e-05, No Iterations 17
time step continuity errors : sum local = 0.000200476, global = 8.42659e-06, cumulative = 7.03689e-05
DICPCG:  Solving for p_rgh, Initial residual = 0.000294633, Final residual = 9.88357e-08, No Iterations 103
time step continuity errors : sum local = 2.20555e-07, global = 2.23828e-09, cumulative = 7.03712e-05
ExecutionTime = 0.67 s  ClockTime = 0 s

Courant Number mean: 0.13258 max: 0.918184
Interface Courant Number mean: 0.00712967 max: 0.918184
deltaT = 0.00320965
Time = 0.0646938

PIMPLE: iteration 1
smoothSolver:  Solving for alpha.water, Initial residual = 0.00314174, Final residual = 1.59166e-09, No Iterations 4
Phase-1 volume fraction = 0.124752  Min(alpha.water) = -1.03701e-06  Max(alpha.water) = 1
MULES: Correcting alpha.water
MULES: Correcting alpha.water
Phase-1 volume fraction = 0.124752  Min(alpha.water) = -1.65893e-05  Max(alpha.water) = 1.0001
DICPCG:  Solving for p_rgh, Initial residual = 0.0446255, Final residual = 0.001833, No Iterations 1
time step continuity errors : sum local = 0.00401697, global = -4.75191e-08, cumulative = 7.03237e-05
DICPCG:  Solving for p_rgh, Initial residual = 0.00209593, Final residual = 9.59518e-05, No Iterations 11
time step continuity errors : sum local = 0.00020399, global = 1.46535e-07, cumulative = 7.04702e-05
DICPCG:  Solving for p_rgh, Initial residual = 0.000317456, Final residual = 8.93986e-08, No Iterations 104
time step continuity errors : sum local = 1.90965e-07, global = 4.57488e-09, cumulative = 7.04748e-05
ExecutionTime = 0.7 s  ClockTime = 0 s

Courant Number mean: 0.139018 max: 0.944615
Interface Courant Number mean: 0.00788618 max: 0.905104
deltaT = 0.00320965
Time = 0.0679035

PIMPLE: iteration 1
smoothSolver:  Solving for alpha.water, Initial residual = 0.00327848, Final residual = 2.37943e-09, No Iterations 4
Phase-1 volume fraction = 0.124752  Min(alpha.water) = -9.17e-06  Max(alpha.water) = 1
MULES: Correcting alpha.water
MULES: Correcting alpha.water
Phase-1 volume fraction = 0.124752  Min(alpha.water) = -1.52136e-05  Max(alpha.water) = 1.00006
DICPCG:  Solving for p_rgh, Initial residual = 0.0522557, Final residual = 0.0013304, No Iterations 1
time step continuity errors : sum local = 0.00321004, global = 6.79891e-08, cumulative = 7.05428e-05
DICPCG:  Solving for p_rgh, Initial residual = 0.00153953, Final residual = 6.90702e-05, No Iterations 10
time step continuity errors : sum local = 0.000159636, global = -3.68521e-07, cumulative = 7.01742e-05
DICPCG:  Solving for p_rgh, Initial residual = 0.000250001, Final residual = 8.92934e-08, No Iterations 103
time step continuity errors : sum local = 2.07077e-07, global = 1.15363e-08, cumulative = 7.01858e-05
ExecutionTime = 0.72 s  ClockTime = 0 s

Courant Number mean: 0.145305 max: 0.96013
Interface Courant Number mean: 0.00822481 max: 0.949292
deltaT = 0.00320965
Time = 0.0711131

PIMPLE: iteration 1
smoothSolver:  Solving for alpha.water, Initial residual = 0.00342534, Final residual = 3.33297e-09, No Iterations 4
Phase-1 volume fraction = 0.124752  Min(alpha.water) = -6.9866e-06  Max(alpha.water) = 1
MULES: Correcting alpha.water
MULES: Correcting alpha.water
Phase-1 volume fraction = 0.124752  Min(alpha.water) = -6.9866e-06  Max(alpha.water) = 1.00013
DICPCG:  Solving for p_rgh, Initial residual = 0.0785182, Final residual = 0.00119633, No Iterations 1
time step continuity errors : sum local = 0.003114, global = 8.48009e-08, cumulative = 7.02706e-05
DICPCG:  Solving for p_rgh, Initial residual = 0.0014174, Final residual = 6.80285e-05, No Iterations 10
time step continuity errors : sum local = 0.000164425, global = -1.96021e-07, cumulative = 7.00746e-05
DICPCG:  Solving for p_rgh, Initial residual = 0.000238886, Final residual = 9.36838e-08, No Iterations 97
time step continuity errors : sum local = 2.27245e-07, global = -3.75577e-09, cumulative = 7.00708e-05
ExecutionTime = 0.75 s  ClockTime = 0 s

Courant Number mean: 0.151569 max: 0.979368
Interface Courant Number mean: 0.00885706 max: 0.979368
deltaT = 0.00320965
Time = 0.0743228

PIMPLE: iteration 1
smoothSolver:  Solving for alpha.water, Initial residual = 0.00357618, Final residual = 4.46668e-09, No Iterations 4
Phase-1 volume fraction = 0.124752  Min(alpha.water) = -5.25534e-06  Max(alpha.water) = 1
MULES: Correcting alpha.water
MULES: Correcting alpha.water
Phase-1 volume fraction = 0.124752  Min(alpha.water) = -4.87391e-06  Max(alpha.water) = 1.00003
DICPCG:  Solving for p_rgh, Initial residual = 0.0629338, Final residual = 0.00176476, No Iterations 1
time step continuity errors : sum local = 0.00404941, global = 4.90267e-08, cumulative = 7.01198e-05
DICPCG:  Solving for p_rgh, Initial residual = 0.00205019, Final residual = 0.000100544, No Iterations 9
time step continuity errors : sum local = 0.000217953, global = -4.62559e-08, cumulative = 7.00736e-05
DICPCG:  Solving for p_rgh, Initial residual = 0.000345223, Final residual = 8.92275e-08, No Iterations 104
time step continuity errors : sum local = 1.94052e-07, global = 1.11338e-08, cumulative = 7.00847e-05
ExecutionTime = 0.77 s  ClockTime = 0 s

Courant Number mean: 0.157876 max: 0.996614
Interface Courant Number mean: 0.00946479 max: 0.996614
deltaT = 0.00320965
Time = 0.0775324

PIMPLE: iteration 1
smoothSolver:  Solving for alpha.water, Initial residual = 0.0037153, Final residual = 5.90487e-09, No Iterations 4
Phase-1 volume fraction = 0.124752  Min(alpha.water) = -3.62118e-06  Max(alpha.water) = 1
MULES: Correcting alpha.water
MULES: Correcting alpha.water
Phase-1 volume fraction = 0.124752  Min(alpha.water) = -1.25765e-05  Max(alpha.water) = 1.00003
DICPCG:  Solving for p_rgh, Initial residual = 0.043348, Final residual = 0.00191077, No Iterations 1
time step continuity errors : sum local = 0.00410695, global = 8.90968e-08, cumulative = 7.01738e-05
DICPCG:  Solving for p_rgh, Initial residual = 0.00219646, Final residual = 0.000101871, No Iterations 9
time step continuity errors : sum local = 0.000211343, global = -1.15505e-08, cumulative = 7.01623e-05
DICPCG:  Solving for p_rgh, Initial residual = 0.000365042, Final residual = 8.63037e-08, No Iterations 104
time step continuity errors : sum local = 1.79659e-07, global = 1.20247e-08, cumulative = 7.01743e-05
ExecutionTime = 0.8 s  ClockTime = 0 s

Courant Number mean: 0.16387 max: 1.00534
Interface Courant Number mean: 0.0101444 max: 1.00534
deltaT = 0.00280845
Time = 0.0803409

PIMPLE: iteration 1
smoothSolver:  Solving for alpha.water, Initial residual = 0.00337102, Final residual = 3.29269e-09, No Iterations 4
Phase-1 volume fraction = 0.124752  Min(alpha.water) = -3.3583e-06  Max(alpha.water) = 1
MULES: Correcting alpha.water
MULES: Correcting alpha.water
Phase-1 volume fraction = 0.124752  Min(alpha.water) = -8.42467e-06  Max(alpha.water) = 1.00007
DICPCG:  Solving for p_rgh, Initial residual = 0.0505609, Final residual = 0.00143574, No Iterations 1
time step continuity errors : sum local = 0.00258836, global = 1.93665e-08, cumulative = 7.01936e-05
DICPCG:  Solving for p_rgh, Initial residual = 0.00164937, Final residual = 7.47147e-05, No Iterations 9
time step continuity errors : sum local = 0.000128853, global = -6.19902e-09, cumulative = 7.01874e-05
DICPCG:  Solving for p_rgh, Initial residual = 0.000261469, Final residual = 9.88596e-08, No Iterations 103
time step continuity errors : sum local = 1.70958e-07, global = 1.017e-08, cumulative = 7.01976e-05
ExecutionTime = 0.82 s  ClockTime = 0 s

Courant Number mean: 0.147844 max: 0.890753
Interface Courant Number mean: 0.00884938 max: 0.890753
deltaT = 0.00280845
Time = 0.0831493

PIMPLE: iteration 1
smoothSolver:  Solving for alpha.water, Initial residual = 0.00349574, Final residual = 3.77278e-09, No Iterations 4
Phase-1 volume fraction = 0.124752  Min(alpha.water) = -2.76432e-06  Max(alpha.water) = 1
MULES: Correcting alpha.water
MULES: Correcting alpha.water
Phase-1 volume fraction = 0.124752  Min(alpha.water) = -3.11247e-06  Max(alpha.water) = 1.00005
DICPCG:  Solving for p_rgh, Initial residual = 0.0713949, Final residual = 0.00132916, No Iterations 1
time step continuity errors : sum local = 0.00253486, global = 3.74944e-08, cumulative = 7.02351e-05
DICPCG:  Solving for p_rgh, Initial residual = 0.00157042, Final residual = 7.57517e-05, No Iterations 10
time step continuity errors : sum local = 0.000134743, global = -1.93846e-08, cumulative = 7.02157e-05
DICPCG:  Solving for p_rgh, Initial residual = 0.000252179, Final residual = 9.3476e-08, No Iterations 98
time step continuity errors : sum local = 1.6686e-07, global = -6.37638e-09, cumulative = 7.02094e-05
ExecutionTime = 0.85 s  ClockTime = 0 s

Courant Number mean: 0.152423 max: 0.899284
Interface Courant Number mean: 0.00952419 max: 0.897134
deltaT = 0.00280845
Time = 0.0859578

PIMPLE: iteration 1
smoothSolver:  Solving for alpha.water, Initial residual = 0.00361228, Final residual = 4.52902e-09, No Iterations 4
Phase-1 volume fraction = 0.124752  Min(alpha.water) = -2.27667e-06  Max(alpha.water) = 1
MULES: Correcting alpha.water
MULES: Correcting alpha.water
Phase-1 volume fraction = 0.124752  Min(alpha.water) = -8.70929e-06  Max(alpha.water) = 1.00005
DICPCG:  Solving for p_rgh, Initial residual = 0.0567143, Final residual = 0.00178651, No Iterations 1
time step continuity errors : sum local = 0.0030871, global = 1.39757e-08, cumulative = 7.02233e-05
DICPCG:  Solving for p_rgh, Initial residual = 0.00206446, Final residual = 0.000100429, No Iterations 9
time step continuity errors : sum local = 0.000164741, global = -7.20194e-09, cumulative = 7.02161e-05
DICPCG:  Solving for p_rgh, Initial residual = 0.000325007, Final residual = 9.023e-08, No Iterations 104
time step continuity errors : sum local = 1.48501e-07, global = 1.08752e-08, cumulative = 7.0227e-05
ExecutionTime = 0.88 s  ClockTime = 0 s

Courant Number mean: 0.156896 max: 0.940876
Interface Courant Number mean: 0.00974462 max: 0.902959
deltaT = 0.00280845
Time = 0.0887662

PIMPLE: iteration 1
smoothSolver:  Solving for alpha.water, Initial residual = 0.00373682, Final residual = 5.49581e-09, No Iterations 4
Phase-1 volume fraction = 0.124752  Min(alpha.water) = -1.74336e-06  Max(alpha.water) = 1
MULES: Correcting alpha.water
MULES: Correcting alpha.water
Phase-1 volume fraction = 0.124752  Min(alpha.water) = -1.0269e-05  Max(alpha.water) = 1.00005
DICPCG:  Solving for p_rgh, Initial residual = 0.0468652, Final residual = 0.00175026, No Iterations 1
time step continuity errors : sum local = 0.00296535, global = 5.47988e-08, cumulative = 7.02818e-05
DICPCG:  Solving for p_rgh, Initial residual = 0.00203115, Final residual = 9.72431e-05, No Iterations 8
time step continuity errors : sum local = 0.000157993, global = 5.79212e-08, cumulative = 7.03397e-05
DICPCG:  Solving for p_rgh, Initial residual = 0.000319977, Final residual = 9.81693e-08, No Iterations 104
time step continuity errors : sum local = 1.59964e-07, global = 7.82403e-09, cumulative = 7.03475e-05
ExecutionTime = 0.9 s  ClockTime = 1 s

Courant Number mean: 0.161197 max: 1.00131
Interface Courant Number mean: 0.0100933 max: 0.910287
deltaT = 0.00224676
Time = 0.091013

PIMPLE: iteration 1
smoothSolver:  Solving for alpha.water, Initial residual = 0.00308587, Final residual = 1.61715e-09, No Iterations 4
Phase-1 volume fraction = 0.124752  Min(alpha.water) = -1.48011e-06  Max(alpha.water) = 1
MULES: Correcting alpha.water
MULES: Correcting alpha.water
Phase-1 volume fraction = 0.124752  Min(alpha.water) = -9.1376e-06  Max(alpha.water) = 1.00007
DICPCG:  Solving for p_rgh, Initial residual = 0.0479766, Final residual = 0.00133476, No Iterations 1
time step continuity errors : sum local = 0.001569, global = -3.45908e-10, cumulative = 7.03472e-05
DICPCG:  Solving for p_rgh, Initial residual = 0.00151616, Final residual = 7.45144e-05, No Iterations 8
time step continuity errors : sum local = 8.3772e-05, global = 3.45713e-08, cumulative = 7.03818e-05
DICPCG:  Solving for p_rgh, Initial residual = 0.000211366, Final residual = 8.95491e-08, No Iterations 100
time step continuity errors : sum local = 1.00867e-07, global = 3.11799e-09, cumulative = 7.03849e-05
ExecutionTime = 0.93 s  ClockTime = 1 s

Courant Number mean: 0.131586 max: 0.835693
Interface Courant Number mean: 0.00806188 max: 0.745371
deltaT = 0.00224676
Time = 0.0932597

PIMPLE: iteration 1
smoothSolver:  Solving for alpha.water, Initial residual = 0.00316879, Final residual = 1.68e-09, No Iterations 4
Phase-1 volume fraction = 0.124752  Min(alpha.water) = -1.24753e-06  Max(alpha.water) = 1
MULES: Correcting alpha.water
MULES: Correcting alpha.water
Phase-1 volume fraction = 0.124752  Min(alpha.water) = -1.16863e-05  Max(alpha.water) = 1.00003
DICPCG:  Solving for p_rgh, Initial residual = 0.0616099, Final residual = 0.001376, No Iterations 1
time step continuity errors : sum local = 0.0016771, global = 7.75248e-09, cumulative = 7.03926e-05
DICPCG:  Solving for p_rgh, Initial residual = 0.00158369, Final residual = 6.81441e-05, No Iterations 10
time step continuity errors : sum local = 7.82253e-05, global = 2.96942e-08, cumulative = 7.04223e-05
DICPCG:  Solving for p_rgh, Initial residual = 0.000233983, Final residual = 9.20634e-08, No Iterations 100
time step continuity errors : sum local = 1.06006e-07, global = 4.737e-09, cumulative = 7.04271e-05
ExecutionTime = 0.95 s  ClockTime = 1 s

Courant Number mean: 0.134365 max: 0.876917
Interface Courant Number mean: 0.00793777 max: 0.737586
deltaT = 0.00224676
Time = 0.0955065

PIMPLE: iteration 1
smoothSolver:  Solving for alpha.water, Initial residual = 0.00325023, Final residual = 1.88424e-09, No Iterations 4
Phase-1 volume fraction = 0.124752  Min(alpha.water) = -1.04232e-06  Max(alpha.water) = 1
MULES: Correcting alpha.water
MULES: Correcting alpha.water
Phase-1 volume fraction = 0.124752  Min(alpha.water) = -1.38509e-05  Max(alpha.water) = 1.00008
DICPCG:  Solving for p_rgh, Initial residual = 0.0505823, Final residual = 0.00148928, No Iterations 1
time step continuity errors : sum local = 0.00169006, global = 2.00243e-08, cumulative = 7.04471e-05
DICPCG:  Solving for p_rgh, Initial residual = 0.00170222, Final residual = 7.13024e-05, No Iterations 10
time step continuity errors : sum local = 7.72079e-05, global = -7.94367e-09, cumulative = 7.04392e-05
DICPCG:  Solving for p_rgh, Initial residual = 0.000245814, Final residual = 9.17852e-08, No Iterations 99
time step continuity errors : sum local = 9.97294e-08, global = 6.50226e-09, cumulative = 7.04457e-05
ExecutionTime = 0.97 s  ClockTime = 1 s

Courant Number mean: 0.137046 max: 0.923347
Interface Courant Number mean: 0.00806629 max: 0.771547
deltaT = 0.00224676
Time = 0.0977532

PIMPLE: iteration 1
smoothSolver:  Solving for alpha.water, Initial residual = 0.0033352, Final residual = 2.16226e-09, No Iterations 4
Phase-1 volume fraction = 0.124752  Min(alpha.water) = -8.61905e-07  Max(alpha.water) = 1
MULES: Correcting alpha.water
MULES: Correcting alpha.water
Phase-1 volume fraction = 0.124752  Min(alpha.water) = -1.09212e-05  Max(alpha.water) = 1.00008
DICPCG:  Solving for p_rgh, Initial residual = 0.0483761, Final residual = 0.00153122, No Iterations 1
time step continuity errors : sum local = 0.00173132, global = 1.7779e-08, cumulative = 7.04634e-05
DICPCG:  Solving for p_rgh, Initial residual = 0.00175414, Final residual = 8.67276e-05, No Iterations 8
time step continuity errors : sum local = 9.38499e-05, global = 2.79045e-08, cumulative = 7.04913e-05
DICPCG:  Solving for p_rgh, Initial residual = 0.000255879, Final residual = 8.66268e-08, No Iterations 104
time step continuity errors : sum local = 9.39386e-08, global = 4.81864e-09, cumulative = 7.04962e-05
ExecutionTime = 1 s  ClockTime = 1 s

Courant Number mean: 0.139698 max: 0.974683
Interface Courant Number mean: 0.00832276 max: 0.746206
deltaT = 0.00224676
Time = 0.1

PIMPLE: iteration 1
smoothSolver:  Solving for alpha.water, Initial residual = 0.00340992, Final residual = 2.50998e-09, No Iterations 4
Phase-1 volume fraction = 0.124752  Min(alpha.water) = -7.03977e-07  Max(alpha.water) = 1
MULES: Correcting alpha.water
MULES: Correcting alpha.water
Phase-1 volume fraction = 0.124752  Min(alpha.water) = -1.40259e-05  Max(alpha.water) = 1.00015
DICPCG:  Solving for p_rgh, Initial residual = 0.0483468, Final residual = 0.00152501, No Iterations 1
time step continuity errors : sum local = 0.00176345, global = 1.38174e-08, cumulative = 7.051e-05
DICPCG:  Solving for p_rgh, Initial residual = 0.00175219, Final residual = 7.66519e-05, No Iterations 9
time step continuity errors : sum local = 8.4912e-05, global = 3.01774e-08, cumulative = 7.05402e-05
DICPCG:  Solving for p_rgh, Initial residual = 0.000263838, Final residual = 9.18069e-08, No Iterations 77
time step continuity errors : sum local = 1.0182e-07, global = -1.37191e-08, cumulative = 7.05264e-05
ExecutionTime = 1.04 s  ClockTime = 1 s

Courant Number mean: 0.142366 max: 1.0322
Interface Courant Number mean: 0.00850577 max: 0.797784
deltaT = 0.00217391
Time = 0.102174

PIMPLE: iteration 1
smoothSolver:  Solving for alpha.water, Initial residual = 0.00337502, Final residual = 2.33088e-09, No Iterations 4
Phase-1 volume fraction = 0.124752  Min(alpha.water) = -6.54592e-07  Max(alpha.water) = 1
MULES: Correcting alpha.water
MULES: Correcting alpha.water
Phase-1 volume fraction = 0.124752  Min(alpha.water) = -1.36996e-05  Max(alpha.water) = 1.00014
DICPCG:  Solving for p_rgh, Initial residual = 0.062745, Final residual = 0.00131803, No Iterations 1
time step continuity errors : sum local = 0.0015316, global = -2.0888e-08, cumulative = 7.05055e-05
DICPCG:  Solving for p_rgh, Initial residual = 0.00155384, Final residual = 6.42613e-05, No Iterations 9
time step continuity errors : sum local = 7.03511e-05, global = -1.14194e-08, cumulative = 7.04941e-05
DICPCG:  Solving for p_rgh, Initial residual = 0.000233348, Final residual = 9.49006e-08, No Iterations 101
time step continuity errors : sum local = 1.03908e-07, global = 7.23024e-09, cumulative = 7.05014e-05
ExecutionTime = 1.06 s  ClockTime = 1 s

Courant Number mean: 0.140208 max: 1.05819
Interface Courant Number mean: 0.00817403 max: 0.754583
deltaT = 0.00199275
Time = 0.104167

PIMPLE: iteration 1
smoothSolver:  Solving for alpha.water, Initial residual = 0.0031582, Final residual = 1.51204e-09, No Iterations 4
Phase-1 volume fraction = 0.124752  Min(alpha.water) = -6.12699e-07  Max(alpha.water) = 1
MULES: Correcting alpha.water
MULES: Correcting alpha.water
Phase-1 volume fraction = 0.124752  Min(alpha.water) = -1.08007e-05  Max(alpha.water) = 1.00011
DICPCG:  Solving for p_rgh, Initial residual = 0.050199, Final residual = 0.00130598, No Iterations 1
time step continuity errors : sum local = 0.00120649, global = 2.67947e-08, cumulative = 7.05282e-05
DICPCG:  Solving for p_rgh, Initial residual = 0.00151891, Final residual = 6.48171e-05, No Iterations 8
time step continuity errors : sum local = 5.72479e-05, global = 4.09071e-08, cumulative = 7.05691e-05
DICPCG:  Solving for p_rgh, Initial residual = 0.000226722, Final residual = 8.70007e-08, No Iterations 102
time step continuity errors : sum local = 7.67392e-08, global = 3.69005e-09, cumulative = 7.05727e-05
ExecutionTime = 1.08 s  ClockTime = 1 s

Courant Number mean: 0.13049 max: 1.02827
Interface Courant Number mean: 0.00750744 max: 0.74399
deltaT = 0.00190972
Time = 0.106076

PIMPLE: iteration 1
smoothSolver:  Solving for alpha.water, Initial residual = 0.00308029, Final residual = 1.24596e-09, No Iterations 4
Phase-1 volume fraction = 0.124752  Min(alpha.water) = -5.60562e-07  Max(alpha.water) = 1
MULES: Correcting alpha.water
MULES: Correcting alpha.water
Phase-1 volume fraction = 0.124752  Min(alpha.water) = -9.12178e-06  Max(alpha.water) = 1.00011
DICPCG:  Solving for p_rgh, Initial residual = 0.0460656, Final residual = 0.00142699, No Iterations 1
time step continuity errors : sum local = 0.00119642, global = 1.91705e-09, cumulative = 7.05747e-05
DICPCG:  Solving for p_rgh, Initial residual = 0.00164087, Final residual = 7.48501e-05, No Iterations 8
time step continuity errors : sum local = 6.02993e-05, global = 1.83673e-08, cumulative = 7.0593e-05
DICPCG:  Solving for p_rgh, Initial residual = 0.000243144, Final residual = 9.18209e-08, No Iterations 82
time step continuity errors : sum local = 7.38094e-08, global = 2.10143e-08, cumulative = 7.0614e-05
ExecutionTime = 1.11 s  ClockTime = 1 s

Courant Number mean: 0.126865 max: 1.17588
Interface Courant Number mean: 0.00754174 max: 0.748541
deltaT = 0.0015687
Time = 0.107645

PIMPLE: iteration 1
smoothSolver:  Solving for alpha.water, Initial residual = 0.00258027, Final residual = 3.57215e-10, No Iterations 4
Phase-1 volume fraction = 0.124752  Min(alpha.water) = -5.12303e-07  Max(alpha.water) = 1
MULES: Correcting alpha.water
MULES: Correcting alpha.water
Phase-1 volume fraction = 0.124752  Min(alpha.water) = -5.81163e-06  Max(alpha.water) = 1.00008
DICPCG:  Solving for p_rgh, Initial residual = 0.0400312, Final residual = 0.00143825, No Iterations 1
time step continuity errors : sum local = 0.000837322, global = 2.7136e-08, cumulative = 7.06412e-05
DICPCG:  Solving for p_rgh, Initial residual = 0.00161758, Final residual = 6.60377e-05, No Iterations 8
time step continuity errors : sum local = 3.72093e-05, global = 3.96726e-08, cumulative = 7.06809e-05
DICPCG:  Solving for p_rgh, Initial residual = 0.000212914, Final residual = 9.6987e-08, No Iterations 101
time step continuity errors : sum local = 5.45232e-08, global = 3.32083e-09, cumulative = 7.06842e-05
ExecutionTime = 1.13 s  ClockTime = 1 s

Courant Number mean: 0.105378 max: 1.09815
Interface Courant Number mean: 0.00583618 max: 0.604926
deltaT = 0.00141183
Time = 0.109057

PIMPLE: iteration 1
smoothSolver:  Solving for alpha.water, Initial residual = 0.00235169, Final residual = 1.78644e-10, No Iterations 4
Phase-1 volume fraction = 0.124752  Min(alpha.water) = -4.66473e-07  Max(alpha.water) = 1
MULES: Correcting alpha.water
MULES: Correcting alpha.water
Phase-1 volume fraction = 0.124752  Min(alpha.water) = -4.83057e-06  Max(alpha.water) = 1.00009
DICPCG:  Solving for p_rgh, Initial residual = 0.0400697, Final residual = 0.00136791, No Iterations 1
time step continuity errors : sum local = 0.00068268, global = -9.62849e-09, cumulative = 7.06745e-05
DICPCG:  Solving for p_rgh, Initial residual = 0.00152597, Final residual = 6.64571e-05, No Iterations 9
time step continuity errors : sum local = 3.20402e-05, global = -5.901e-09, cumulative = 7.06686e-05
DICPCG:  Solving for p_rgh, Initial residual = 0.000198773, Final residual = 9.63326e-08, No Iterations 101
time step continuity errors : sum local = 4.63595e-08, global = 3.24106e-09, cumulative = 7.06719e-05
ExecutionTime = 1.16 s  ClockTime = 1 s

Courant Number mean: 0.0957951 max: 1.08704
Interface Courant Number mean: 0.00508729 max: 0.559894
deltaT = 0.00127947
Time = 0.110336

PIMPLE: iteration 1
smoothSolver:  Solving for alpha.water, Initial residual = 0.00216918, Final residual = 6.4208e-09, No Iterations 3
Phase-1 volume fraction = 0.124752  Min(alpha.water) = -4.42827e-07  Max(alpha.water) = 1
MULES: Correcting alpha.water
MULES: Correcting alpha.water
Phase-1 volume fraction = 0.124752  Min(alpha.water) = -3.87291e-06  Max(alpha.water) = 1.00003
DICPCG:  Solving for p_rgh, Initial residual = 0.043657, Final residual = 0.00136829, No Iterations 2
time step continuity errors : sum local = 0.000589608, global = 4.34213e-09, cumulative = 7.06762e-05
DICPCG:  Solving for p_rgh, Initial residual = 0.00156602, Final residual = 7.63916e-05, No Iterations 16
time step continuity errors : sum local = 3.16429e-05, global = 4.8999e-08, cumulative = 7.07252e-05
DICPCG:  Solving for p_rgh, Initial residual = 0.000240926, Final residual = 9.90034e-08, No Iterations 102
time step continuity errors : sum local = 4.1062e-08, global = 5.15645e-10, cumulative = 7.07257e-05
ExecutionTime = 1.18 s  ClockTime = 1 s

Courant Number mean: 0.0875804 max: 1.04905
Interface Courant Number mean: 0.00485275 max: 0.628142
deltaT = 0.00120193
Time = 0.111538

PIMPLE: iteration 1
smoothSolver:  Solving for alpha.water, Initial residual = 0.00205972, Final residual = 4.73683e-09, No Iterations 3
Phase-1 volume fraction = 0.124752  Min(alpha.water) = -4.3179e-07  Max(alpha.water) = 1
MULES: Correcting alpha.water
MULES: Correcting alpha.water
Phase-1 volume fraction = 0.124752  Min(alpha.water) = -3.23484e-06  Max(alpha.water) = 1.00005
DICPCG:  Solving for p_rgh, Initial residual = 0.0397634, Final residual = 0.00145571, No Iterations 3
time step continuity errors : sum local = 0.000538548, global = -1.39014e-09, cumulative = 7.07244e-05
DICPCG:  Solving for p_rgh, Initial residual = 0.00167449, Final residual = 8.18788e-05, No Iterations 20
time step continuity errors : sum local = 2.92616e-05, global = 3.2284e-06, cumulative = 7.39528e-05
DICPCG:  Solving for p_rgh, Initial residual = 0.000270398, Final residual = 9.623e-08, No Iterations 103
time step continuity errors : sum local = 3.44794e-08, global = 6.13118e-10, cumulative = 7.39534e-05
ExecutionTime = 1.2 s  ClockTime = 1 s

Courant Number mean: 0.0829529 max: 1.02638
Interface Courant Number mean: 0.0044333 max: 0.584543
deltaT = 0.00116551
Time = 0.112704

PIMPLE: iteration 1
smoothSolver:  Solving for alpha.water, Initial residual = 0.00201942, Final residual = 4.12736e-09, No Iterations 3
Phase-1 volume fraction = 0.124752  Min(alpha.water) = -4.16671e-07  Max(alpha.water) = 1
MULES: Correcting alpha.water
MULES: Correcting alpha.water
Phase-1 volume fraction = 0.124752  Min(alpha.water) = -2.84852e-06  Max(alpha.water) = 1.00004
DICPCG:  Solving for p_rgh, Initial residual = 0.037896, Final residual = 0.00141033, No Iterations 4
time step continuity errors : sum local = 0.000481262, global = -5.79631e-08, cumulative = 7.38954e-05
DICPCG:  Solving for p_rgh, Initial residual = 0.00160934, Final residual = 7.18468e-05, No Iterations 30
time step continuity errors : sum local = 2.37366e-05, global = 3.90316e-06, cumulative = 7.77986e-05
DICPCG:  Solving for p_rgh, Initial residual = 0.000251349, Final residual = 9.8528e-08, No Iterations 108
time step continuity errors : sum local = 3.26716e-08, global = -9.76907e-10, cumulative = 7.77976e-05
ExecutionTime = 1.23 s  ClockTime = 1 s

Courant Number mean: 0.0810858 max: 1.03281
Interface Courant Number mean: 0.00429244 max: 0.563192
deltaT = 0.00109695
Time = 0.113801

PIMPLE: iteration 1
smoothSolver:  Solving for alpha.water, Initial residual = 0.00192395, Final residual = 3.07666e-09, No Iterations 3
Phase-1 volume fraction = 0.124752  Min(alpha.water) = -3.99261e-07  Max(alpha.water) = 1
MULES: Correcting alpha.water
MULES: Correcting alpha.water
Phase-1 volume fraction = 0.124752  Min(alpha.water) = -2.17466e-06  Max(alpha.water) = 1.00001
DICPCG:  Solving for p_rgh, Initial residual = 0.0344812, Final residual = 0.0016533, No Iterations 4
time step continuity errors : sum local = 0.000494951, global = -4.22889e-08, cumulative = 7.77553e-05
DICPCG:  Solving for p_rgh, Initial residual = 0.00184973, Final residual = 8.42124e-05, No Iterations 30
time step continuity errors : sum local = 2.4506e-05, global = 4.00735e-06, cumulative = 8.17626e-05
DICPCG:  Solving for p_rgh, Initial residual = 0.000269589, Final residual = 8.64857e-08, No Iterations 109
time step continuity errors : sum local = 2.52626e-08, global = -8.13179e-10, cumulative = 8.17618e-05
ExecutionTime = 1.25 s  ClockTime = 1 s

Courant Number mean: 0.0768809 max: 0.982228
Interface Courant Number mean: 0.00410353 max: 0.936881
deltaT = 0.00109695
Time = 0.114898

PIMPLE: iteration 1
smoothSolver:  Solving for alpha.water, Initial residual = 0.00194768, Final residual = 3.27553e-09, No Iterations 3
Phase-1 volume fraction = 0.124752  Min(alpha.water) = -3.79356e-07  Max(alpha.water) = 1
MULES: Correcting alpha.water
MULES: Correcting alpha.water
Phase-1 volume fraction = 0.124752  Min(alpha.water) = -1.93324e-06  Max(alpha.water) = 1.00005
DICPCG:  Solving for p_rgh, Initial residual = 0.0345558, Final residual = 0.00160686, No Iterations 5
time step continuity errors : sum local = 0.000484301, global = -4.75195e-08, cumulative = 8.17143e-05
DICPCG:  Solving for p_rgh, Initial residual = 0.00181289, Final residual = 8.43432e-05, No Iterations 33
time step continuity errors : sum local = 2.47214e-05, global = 3.0188e-06, cumulative = 8.47331e-05
DICPCG:  Solving for p_rgh, Initial residual = 0.000254648, Final residual = 8.84405e-08, No Iterations 109
time step continuity errors : sum local = 2.60041e-08, global = -1.07622e-09, cumulative = 8.4732e-05
ExecutionTime = 1.28 s  ClockTime = 1 s

Courant Number mean: 0.0774439 max: 0.979614
Interface Courant Number mean: 0.00428313 max: 0.977515
deltaT = 0.00109695
Time = 0.115995

PIMPLE: iteration 1
smoothSolver:  Solving for alpha.water, Initial residual = 0.00196438, Final residual = 3.43567e-09, No Iterations 3
Phase-1 volume fraction = 0.124752  Min(alpha.water) = -3.57554e-07  Max(alpha.water) = 1
MULES: Correcting alpha.water
MULES: Correcting alpha.water
Phase-1 volume fraction = 0.124752  Min(alpha.water) = -1.68306e-06  Max(alpha.water) = 1.00005
DICPCG:  Solving for p_rgh, Initial residual = 0.0336388, Final residual = 0.00135424, No Iterations 6
time step continuity errors : sum local = 0.000411228, global = -4.29358e-08, cumulative = 8.46891e-05
DICPCG:  Solving for p_rgh, Initial residual = 0.00154349, Final residual = 7.51134e-05, No Iterations 36
time step continuity errors : sum local = 2.22483e-05, global = 2.31792e-06, cumulative = 8.7007e-05
DICPCG:  Solving for p_rgh, Initial residual = 0.000231968, Final residual = 8.25697e-08, No Iterations 109
time step continuity errors : sum local = 2.45228e-08, global = -7.81839e-10, cumulative = 8.70062e-05
ExecutionTime = 1.3 s  ClockTime = 1 s

Courant Number mean: 0.0780024 max: 0.992337
Interface Courant Number mean: 0.00413382 max: 0.959371
deltaT = 0.00109695
Time = 0.117092

PIMPLE: iteration 1
smoothSolver:  Solving for alpha.water, Initial residual = 0.00197443, Final residual = 3.6217e-09, No Iterations 3
Phase-1 volume fraction = 0.124752  Min(alpha.water) = -3.34409e-07  Max(alpha.water) = 1
MULES: Correcting alpha.water
MULES: Correcting alpha.water
Phase-1 volume fraction = 0.124752  Min(alpha.water) = -1.43354e-06  Max(alpha.water) = 1.00002
DICPCG:  Solving for p_rgh, Initial residual = 0.0357874, Final residual = 0.00173728, No Iterations 5
time step continuity errors : sum local = 0.000555463, global = -3.15728e-08, cumulative = 8.69747e-05
DICPCG:  Solving for p_rgh, Initial residual = 0.00195388, Final residual = 9.31953e-05, No Iterations 36
time step continuity errors : sum local = 2.89394e-05, global = 2.87029e-06, cumulative = 8.9845e-05
DICPCG:  Solving for p_rgh, Initial residual = 0.000266079, Final residual = 9.09653e-08, No Iterations 109
time step continuity errors : sum local = 2.83246e-08, global = -1.44466e-09, cumulative = 8.98435e-05
ExecutionTime = 1.33 s  ClockTime = 1 s

Courant Number mean: 0.0785326 max: 0.99344
Interface Courant Number mean: 0.00445086 max: 0.980166
deltaT = 0.00109695
Time = 0.118189

PIMPLE: iteration 1
smoothSolver:  Solving for alpha.water, Initial residual = 0.00198778, Final residual = 3.89109e-09, No Iterations 3
Phase-1 volume fraction = 0.124752  Min(alpha.water) = -3.10427e-07  Max(alpha.water) = 1
MULES: Correcting alpha.water
MULES: Correcting alpha.water
Phase-1 volume fraction = 0.124752  Min(alpha.water) = -8.20962e-06  Max(alpha.water) = 1.00003
DICPCG:  Solving for p_rgh, Initial residual = 0.0405721, Final residual = 0.00172335, No Iterations 5
time step continuity errors : sum local = 0.000571136, global = -4.27642e-08, cumulative = 8.98007e-05
DICPCG:  Solving for p_rgh, Initial residual = 0.00194366, Final residual = 8.44488e-05, No Iterations 38
time step continuity errors : sum local = 2.70335e-05, global = 2.3041e-06, cumulative = 9.21048e-05
DICPCG:  Solving for p_rgh, Initial residual = 0.000242329, Final residual = 8.99868e-08, No Iterations 109
time step continuity errors : sum local = 2.88779e-08, global = -1.36436e-09, cumulative = 9.21035e-05
ExecutionTime = 1.36 s  ClockTime = 1 s

Courant Number mean: 0.0790813 max: 1.00118
Interface Courant Number mean: 0.00456796 max: 1.00118
deltaT = 0.00106038
Time = 0.119249

PIMPLE: iteration 1
smoothSolver:  Solving for alpha.water, Initial residual = 0.00194656, Final residual = 3.39518e-09, No Iterations 3
Phase-1 volume fraction = 0.124752  Min(alpha.water) = -3.033e-07  Max(alpha.water) = 1
MULES: Correcting alpha.water
MULES: Correcting alpha.water
Phase-1 volume fraction = 0.124752  Min(alpha.water) = -3.53231e-05  Max(alpha.water) = 1.00009
DICPCG:  Solving for p_rgh, Initial residual = 0.0384614, Final residual = 0.00181955, No Iterations 4
time step continuity errors : sum local = 0.000543962, global = -3.48957e-08, cumulative = 9.20686e-05
DICPCG:  Solving for p_rgh, Initial residual = 0.0020308, Final residual = 9.69917e-05, No Iterations 34
time step continuity errors : sum local = 2.80681e-05, global = 3.59367e-06, cumulative = 9.56622e-05
DICPCG:  Solving for p_rgh, Initial residual = 0.000250623, Final residual = 8.61137e-08, No Iterations 109
time step continuity errors : sum local = 2.50003e-08, global = -1.12077e-09, cumulative = 9.56611e-05
ExecutionTime = 1.38 s  ClockTime = 1 s

Courant Number mean: 0.0769512 max: 0.985867
Interface Courant Number mean: 0.00436706 max: 0.95719
deltaT = 0.00106038
Time = 0.120309

PIMPLE: iteration 1
smoothSolver:  Solving for alpha.water, Initial residual = 0.00196842, Final residual = 3.51809e-09, No Iterations 3
Phase-1 volume fraction = 0.124752  Min(alpha.water) = -2.94382e-07  Max(alpha.water) = 1
MULES: Correcting alpha.water
MULES: Correcting alpha.water
Phase-1 volume fraction = 0.124752  Min(alpha.water) = -5.43455e-05  Max(alpha.water) = 1.00003
DICPCG:  Solving for p_rgh, Initial residual = 0.0368773, Final residual = 0.00162516, No Iterations 4
time step continuity errors : sum local = 0.000473024, global = -4.68207e-08, cumulative = 9.56143e-05
DICPCG:  Solving for p_rgh, Initial residual = 0.00180706, Final residual = 9.00193e-05, No Iterations 32
time step continuity errors : sum local = 2.53906e-05, global = 3.18808e-06, cumulative = 9.88024e-05
DICPCG:  Solving for p_rgh, Initial residual = 0.000218065, Final residual = 8.6796e-08, No Iterations 108
time step continuity errors : sum local = 2.45665e-08, global = -9.9176e-10, cumulative = 9.88014e-05
ExecutionTime = 1.41 s  ClockTime = 1 s

Courant Number mean: 0.077457 max: 1.01194
Interface Courant Number mean: 0.00434717 max: 0.981282
deltaT = 0.00102382
Time = 0.121333

PIMPLE: iteration 1
smoothSolver:  Solving for alpha.water, Initial residual = 0.00191831, Final residual = 3.02592e-09, No Iterations 3
Phase-1 volume fraction = 0.124752  Min(alpha.water) = -2.83683e-07  Max(alpha.water) = 1
MULES: Correcting alpha.water
MULES: Correcting alpha.water
Phase-1 volume fraction = 0.124752  Min(alpha.water) = -1.17195e-06  Max(alpha.water) = 1.00002
DICPCG:  Solving for p_rgh, Initial residual = 0.0348581, Final residual = 0.00152799, No Iterations 3
time step continuity errors : sum local = 0.000410102, global = -3.86851e-08, cumulative = 9.87627e-05
DICPCG:  Solving for p_rgh, Initial residual = 0.0016792, Final residual = 8.19034e-05, No Iterations 30
time step continuity errors : sum local = 2.13476e-05, global = 2.89991e-06, cumulative = 0.000101663
DICPCG:  Solving for p_rgh, Initial residual = 0.00021167, Final residual = 9.42179e-08, No Iterations 100
time step continuity errors : sum local = 2.46417e-08, global = -1.64274e-09, cumulative = 0.000101661
ExecutionTime = 1.43 s  ClockTime = 1 s

Courant Number mean: 0.075246 max: 0.984473
Interface Courant Number mean: 0.00408818 max: 0.915594
deltaT = 0.00102382
Time = 0.122357

PIMPLE: iteration 1
smoothSolver:  Solving for alpha.water, Initial residual = 0.00192546, Final residual = 3.18345e-09, No Iterations 3
Phase-1 volume fraction = 0.124752  Min(alpha.water) = -2.71265e-07  Max(alpha.water) = 1
MULES: Correcting alpha.water
MULES: Correcting alpha.water
Phase-1 volume fraction = 0.124752  Min(alpha.water) = -1.04305e-06  Max(alpha.water) = 1.00008
DICPCG:  Solving for p_rgh, Initial residual = 0.0326035, Final residual = 0.00113066, No Iterations 3
time step continuity errors : sum local = 0.000298359, global = -3.37174e-08, cumulative = 0.000101627
DICPCG:  Solving for p_rgh, Initial residual = 0.00124733, Final residual = 5.74124e-05, No Iterations 31
time step continuity errors : sum local = 1.47476e-05, global = 2.0926e-06, cumulative = 0.00010372
DICPCG:  Solving for p_rgh, Initial residual = 0.000158121, Final residual = 8.75177e-08, No Iterations 103
time step continuity errors : sum local = 2.25676e-08, global = -6.9072e-10, cumulative = 0.000103719
ExecutionTime = 1.46 s  ClockTime = 1 s

Courant Number mean: 0.0757107 max: 0.98613
Interface Courant Number mean: 0.00417189 max: 0.944054
deltaT = 0.00102382
Time = 0.123381

PIMPLE: iteration 1
smoothSolver:  Solving for alpha.water, Initial residual = 0.00194711, Final residual = 3.30437e-09, No Iterations 3
Phase-1 volume fraction = 0.124752  Min(alpha.water) = -2.57477e-07  Max(alpha.water) = 1
MULES: Correcting alpha.water
MULES: Correcting alpha.water
Phase-1 volume fraction = 0.124752  Min(alpha.water) = -1.03396e-06  Max(alpha.water) = 1.0001
DICPCG:  Solving for p_rgh, Initial residual = 0.0324619, Final residual = 0.00115899, No Iterations 2
time step continuity errors : sum local = 0.000308836, global = -1.56499e-08, cumulative = 0.000103704
DICPCG:  Solving for p_rgh, Initial residual = 0.00132044, Final residual = 6.28334e-05, No Iterations 23
time step continuity errors : sum local = 1.62863e-05, global = 2.21017e-06, cumulative = 0.000105914
DICPCG:  Solving for p_rgh, Initial residual = 0.000176998, Final residual = 9.43924e-08, No Iterations 103
time step continuity errors : sum local = 2.45549e-08, global = 2.95753e-10, cumulative = 0.000105914
ExecutionTime = 1.49 s  ClockTime = 1 s

Courant Number mean: 0.0761691 max: 0.980363
Interface Courant Number mean: 0.00409376 max: 0.930976
deltaT = 0.00102382
Time = 0.124405

PIMPLE: iteration 1
smoothSolver:  Solving for alpha.water, Initial residual = 0.00198162, Final residual = 3.41841e-09, No Iterations 3
Phase-1 volume fraction = 0.124752  Min(alpha.water) = -2.42658e-07  Max(alpha.water) = 1
MULES: Correcting alpha.water
MULES: Correcting alpha.water
Phase-1 volume fraction = 0.124752  Min(alpha.water) = -1.17883e-06  Max(alpha.water) = 1.00004
DICPCG:  Solving for p_rgh, Initial residual = 0.03233, Final residual = 0.000744452, No Iterations 2
time step continuity errors : sum local = 0.00020173, global = -1.77696e-08, cumulative = 0.000105896
DICPCG:  Solving for p_rgh, Initial residual = 0.000868279, Final residual = 4.21434e-05, No Iterations 23
time step continuity errors : sum local = 1.11117e-05, global = 1.26568e-06, cumulative = 0.000107162
DICPCG:  Solving for p_rgh, Initial residual = 0.000126325, Final residual = 9.17052e-08, No Iterations 101
time step continuity errors : sum local = 2.42729e-08, global = 1.12527e-10, cumulative = 0.000107162
ExecutionTime = 1.51 s  ClockTime = 1 s

Courant Number mean: 0.0766358 max: 0.962023
Interface Courant Number mean: 0.004072 max: 0.937435
deltaT = 0.00102382
Time = 0.125428

PIMPLE: iteration 1
smoothSolver:  Solving for alpha.water, Initial residual = 0.00200414, Final residual = 3.57864e-09, No Iterations 3
Phase-1 volume fraction = 0.124752  Min(alpha.water) = -2.27114e-07  Max(alpha.water) = 1
MULES: Correcting alpha.water
MULES: Correcting alpha.water
Phase-1 volume fraction = 0.124752  Min(alpha.water) = -1.33452e-06  Max(alpha.water) = 1.00002
DICPCG:  Solving for p_rgh, Initial residual = 0.0354781, Final residual = 0.00110227, No Iterations 1
time step continuity errors : sum local = 0.000313522, global = -7.33771e-09, cumulative = 0.000107155
DICPCG:  Solving for p_rgh, Initial residual = 0.00123027, Final residual = 6.04948e-05, No Iterations 8
time step continuity errors : sum local = 1.66707e-05, global = -2.02814e-08, cumulative = 0.000107134
DICPCG:  Solving for p_rgh, Initial residual = 0.000133777, Final residual = 8.92041e-08, No Iterations 104
time step continuity errors : sum local = 2.46147e-08, global = 3.81986e-10, cumulative = 0.000107135
ExecutionTime = 1.54 s  ClockTime = 1 s

Courant Number mean: 0.0771071 max: 0.95141
Interface Courant Number mean: 0.00418689 max: 0.947277
deltaT = 0.00106833
Time = 0.126497

PIMPLE: iteration 1
smoothSolver:  Solving for alpha.water, Initial residual = 0.00211139, Final residual = 4.773e-09, No Iterations 3
Phase-1 volume fraction = 0.124752  Min(alpha.water) = -2.17236e-07  Max(alpha.water) = 1
MULES: Correcting alpha.water
MULES: Correcting alpha.water
Phase-1 volume fraction = 0.124752  Min(alpha.water) = -1.76597e-06  Max(alpha.water) = 1.00006
DICPCG:  Solving for p_rgh, Initial residual = 0.0403955, Final residual = 0.000849287, No Iterations 1
time step continuity errors : sum local = 0.000268031, global = 1.93291e-09, cumulative = 0.000107137
DICPCG:  Solving for p_rgh, Initial residual = 0.000970077, Final residual = 4.39961e-05, No Iterations 9
time step continuity errors : sum local = 1.33745e-05, global = 2.29261e-09, cumulative = 0.000107139
DICPCG:  Solving for p_rgh, Initial residual = 0.000122207, Final residual = 9.91687e-08, No Iterations 100
time step continuity errors : sum local = 3.02076e-08, global = 2.14641e-09, cumulative = 0.000107141
ExecutionTime = 1.57 s  ClockTime = 1 s

Courant Number mean: 0.0809586 max: 0.985529
Interface Courant Number mean: 0.00452319 max: 0.985529
deltaT = 0.00106833
Time = 0.127565

PIMPLE: iteration 1
smoothSolver:  Solving for alpha.water, Initial residual = 0.00213163, Final residual = 4.95106e-09, No Iterations 3
Phase-1 volume fraction = 0.124752  Min(alpha.water) = -2.10708e-07  Max(alpha.water) = 1
MULES: Correcting alpha.water
MULES: Correcting alpha.water
Phase-1 volume fraction = 0.124752  Min(alpha.water) = -1.99405e-06  Max(alpha.water) = 1.00014
DICPCG:  Solving for p_rgh, Initial residual = 0.0374492, Final residual = 0.0008716, No Iterations 1
time step continuity errors : sum local = 0.000264184, global = 4.11399e-09, cumulative = 0.000107145
DICPCG:  Solving for p_rgh, Initial residual = 0.00100783, Final residual = 4.18242e-05, No Iterations 9
time step continuity errors : sum local = 1.2254e-05, global = 3.89805e-09, cumulative = 0.000107149
DICPCG:  Solving for p_rgh, Initial residual = 0.000123288, Final residual = 8.27154e-08, No Iterations 100
time step continuity errors : sum local = 2.42914e-08, global = 5.88576e-10, cumulative = 0.00010715
ExecutionTime = 1.59 s  ClockTime = 1 s

Courant Number mean: 0.081435 max: 0.980395
Interface Courant Number mean: 0.0045934 max: 0.980395
deltaT = 0.00106833
Time = 0.128633

PIMPLE: iteration 1
smoothSolver:  Solving for alpha.water, Initial residual = 0.00216734, Final residual = 5.06864e-09, No Iterations 3
Phase-1 volume fraction = 0.124752  Min(alpha.water) = -2.02555e-07  Max(alpha.water) = 1
MULES: Correcting alpha.water
MULES: Correcting alpha.water
Phase-1 volume fraction = 0.124752  Min(alpha.water) = -1.06005e-05  Max(alpha.water) = 1.00005
DICPCG:  Solving for p_rgh, Initial residual = 0.0351774, Final residual = 0.0008559, No Iterations 1
time step continuity errors : sum local = 0.0002528, global = -8.95517e-10, cumulative = 0.000107149
DICPCG:  Solving for p_rgh, Initial residual = 0.00099069, Final residual = 4.26426e-05, No Iterations 9
time step continuity errors : sum local = 1.2205e-05, global = 2.09775e-10, cumulative = 0.000107149
DICPCG:  Solving for p_rgh, Initial residual = 0.000128255, Final residual = 9.66862e-08, No Iterations 99
time step continuity errors : sum local = 2.77553e-08, global = 3.72155e-10, cumulative = 0.000107149
ExecutionTime = 1.61 s  ClockTime = 1 s

Courant Number mean: 0.0818964 max: 0.971664
Interface Courant Number mean: 0.00453728 max: 0.971664
deltaT = 0.00106833
Time = 0.129702

PIMPLE: iteration 1
smoothSolver:  Solving for alpha.water, Initial residual = 0.00218185, Final residual = 5.26861e-09, No Iterations 3
Phase-1 volume fraction = 0.124752  Min(alpha.water) = -1.93059e-07  Max(alpha.water) = 1
MULES: Correcting alpha.water
MULES: Correcting alpha.water
Phase-1 volume fraction = 0.124752  Min(alpha.water) = -4.95475e-06  Max(alpha.water) = 1.00003
DICPCG:  Solving for p_rgh, Initial residual = 0.0346947, Final residual = 0.000969345, No Iterations 1
time step continuity errors : sum local = 0.000284828, global = 2.55468e-10, cumulative = 0.00010715
DICPCG:  Solving for p_rgh, Initial residual = 0.00112168, Final residual = 5.01487e-05, No Iterations 9
time step continuity errors : sum local = 1.42951e-05, global = 5.07389e-10, cumulative = 0.00010715
DICPCG:  Solving for p_rgh, Initial residual = 0.000138288, Final residual = 8.16743e-08, No Iterations 87
time step continuity errors : sum local = 2.33586e-08, global = 4.8071e-10, cumulative = 0.000107151
ExecutionTime = 1.63 s  ClockTime = 1 s

Courant Number mean: 0.0823562 max: 0.98064
Interface Courant Number mean: 0.00443606 max: 0.961198
deltaT = 0.00106833
Time = 0.13077

PIMPLE: iteration 1
smoothSolver:  Solving for alpha.water, Initial residual = 0.0021726, Final residual = 5.46873e-09, No Iterations 3
Phase-1 volume fraction = 0.124752  Min(alpha.water) = -1.82491e-07  Max(alpha.water) = 1
MULES: Correcting alpha.water
MULES: Correcting alpha.water
Phase-1 volume fraction = 0.124752  Min(alpha.water) = -4.12105e-06  Max(alpha.water) = 1.00004
DICPCG:  Solving for p_rgh, Initial residual = 0.0331702, Final residual = 0.00101716, No Iterations 1
time step continuity errors : sum local = 0.000296392, global = 6.72196e-10, cumulative = 0.000107151
DICPCG:  Solving for p_rgh, Initial residual = 0.00117591, Final residual = 5.66145e-05, No Iterations 9
time step continuity errors : sum local = 1.60227e-05, global = 5.95336e-10, cumulative = 0.000107152
DICPCG:  Solving for p_rgh, Initial residual = 0.000146559, Final residual = 8.54826e-08, No Iterations 100
time step continuity errors : sum local = 2.4264e-08, global = -1.358e-10, cumulative = 0.000107152
ExecutionTime = 1.66 s  ClockTime = 1 s

Courant Number mean: 0.082813 max: 0.987344
Interface Courant Number mean: 0.00450778 max: 0.955213
deltaT = 0.00106833
Time = 0.131838

PIMPLE: iteration 1
smoothSolver:  Solving for alpha.water, Initial residual = 0.00217097, Final residual = 5.59807e-09, No Iterations 3
Phase-1 volume fraction = 0.124752  Min(alpha.water) = -1.71101e-07  Max(alpha.water) = 1
MULES: Correcting alpha.water
MULES: Correcting alpha.water
Phase-1 volume fraction = 0.124752  Min(alpha.water) = -3.28867e-06  Max(alpha.water) = 1.00016
DICPCG:  Solving for p_rgh, Initial residual = 0.0325813, Final residual = 0.00102483, No Iterations 1
time step continuity errors : sum local = 0.000300452, global = -4.88424e-10, cumulative = 0.000107151
DICPCG:  Solving for p_rgh, Initial residual = 0.00120087, Final residual = 5.85433e-05, No Iterations 9
time step continuity errors : sum local = 1.669e-05, global = 1.60204e-10, cumulative = 0.000107151
DICPCG:  Solving for p_rgh, Initial residual = 0.000153782, Final residual = 9.19169e-08, No Iterations 87
time step continuity errors : sum local = 2.62909e-08, global = 2.70627e-09, cumulative = 0.000107154
ExecutionTime = 1.68 s  ClockTime = 1 s

Courant Number mean: 0.0832759 max: 0.984975
Interface Courant Number mean: 0.00449676 max: 0.96244
deltaT = 0.00106833
Time = 0.132907

PIMPLE: iteration 1
smoothSolver:  Solving for alpha.water, Initial residual = 0.00219911, Final residual = 5.65834e-09, No Iterations 3
Phase-1 volume fraction = 0.124752  Min(alpha.water) = -1.59123e-07  Max(alpha.water) = 1
MULES: Correcting alpha.water
MULES: Correcting alpha.water
Phase-1 volume fraction = 0.124752  Min(alpha.water) = -3.60637e-06  Max(alpha.water) = 1.00007
DICPCG:  Solving for p_rgh, Initial residual = 0.0329315, Final residual = 0.000950858, No Iterations 1
time step continuity errors : sum local = 0.000285377, global = 5.48488e-09, cumulative = 0.00010716
DICPCG:  Solving for p_rgh, Initial residual = 0.00110631, Final residual = 4.57725e-05, No Iterations 10
time step continuity errors : sum local = 1.33605e-05, global = 4.3057e-09, cumulative = 0.000107164
DICPCG:  Solving for p_rgh, Initial residual = 0.000150258, Final residual = 9.66217e-08, No Iterations 99
time step continuity errors : sum local = 2.83027e-08, global = -3.16732e-10, cumulative = 0.000107164
ExecutionTime = 1.7 s  ClockTime = 1 s

Courant Number mean: 0.0837224 max: 0.992883
Interface Courant Number mean: 0.00433054 max: 0.914659
deltaT = 0.00106833
Time = 0.133975

PIMPLE: iteration 1
smoothSolver:  Solving for alpha.water, Initial residual = 0.00222542, Final residual = 5.77937e-09, No Iterations 3
Phase-1 volume fraction = 0.124752  Min(alpha.water) = -1.52452e-07  Max(alpha.water) = 1
MULES: Correcting alpha.water
MULES: Correcting alpha.water
Phase-1 volume fraction = 0.124752  Min(alpha.water) = -5.18782e-06  Max(alpha.water) = 1.00008
DICPCG:  Solving for p_rgh, Initial residual = 0.0368059, Final residual = 0.000725567, No Iterations 1
time step continuity errors : sum local = 0.000231072, global = -3.19788e-09, cumulative = 0.00010716
DICPCG:  Solving for p_rgh, Initial residual = 0.000885901, Final residual = 4.28303e-05, No Iterations 11
time step continuity errors : sum local = 1.31841e-05, global = -1.9586e-09, cumulative = 0.000107158
DICPCG:  Solving for p_rgh, Initial residual = 0.000143947, Final residual = 9.32614e-08, No Iterations 100
time step continuity errors : sum local = 2.88198e-08, global = 1.17143e-09, cumulative = 0.00010716
ExecutionTime = 1.73 s  ClockTime = 1 s

Courant Number mean: 0.0841754 max: 0.992583
Interface Courant Number mean: 0.004331 max: 0.915915
deltaT = 0.00106833
Time = 0.135043

PIMPLE: iteration 1
[...]
smoothSolver:  Solving for alpha.water, Initial residual = 0.00220778, Final residual = 2.55802e-10, No Iterations 3
Phase-1 volume fraction = 0.123351  Min(alpha.water) = -9.22875e-09  Max(alpha.water) = 1
MULES: Correcting alpha.water
MULES: Correcting alpha.water
Phase-1 volume fraction = 0.12335  Min(alpha.water) = -3.13243e-06  Max(alpha.water) = 1.00001
DICPCG:  Solving for p_rgh, Initial residual = 0.040257, Final residual = 0.00158364, No Iterations 2
time step continuity errors : sum local = 0.000301018, global = 7.47264e-06, cumulative = 0.000197048
DICPCG:  Solving for p_rgh, Initial residual = 0.00178521, Final residual = 8.89919e-05, No Iterations 11
time step continuity errors : sum local = 1.67443e-05, global = 2.27429e-06, cumulative = 0.000199322
DICPCG:  Solving for p_rgh, Initial residual = 0.000226189, Final residual = 9.43985e-08, No Iterations 146
time step continuity errors : sum local = 1.77548e-08, global = 1.49523e-10, cumulative = 0.000199322
ExecutionTime = 9.59 s  ClockTime = 10 s

Courant Number mean: 0.111268 max: 0.938806
Interface Courant Number mean: 0.00745799 max: 0.41099
deltaT = 0.000699331
Time = 0.388811

PIMPLE: iteration 1
smoothSolver:  Solving for alpha.water, Initial residual = 0.00233705, Final residual = 4.01822e-10, No Iterations 3
Phase-1 volume fraction = 0.123341  Min(alpha.water) = -9.15177e-09  Max(alpha.water) = 1
MULES: Correcting alpha.water
MULES: Correcting alpha.water
Phase-1 volume fraction = 0.123341  Min(alpha.water) = -4.15934e-06  Max(alpha.water) = 1.00001
DICPCG:  Solving for p_rgh, Initial residual = 0.0399403, Final residual = 0.00156503, No Iterations 2
time step continuity errors : sum local = 0.00032324, global = 7.41428e-06, cumulative = 0.000206737
DICPCG:  Solving for p_rgh, Initial residual = 0.00178671, Final residual = 8.79204e-05, No Iterations 10
time step continuity errors : sum local = 1.79737e-05, global = 1.75768e-06, cumulative = 0.000208494
DICPCG:  Solving for p_rgh, Initial residual = 0.00023525, Final residual = 8.39487e-08, No Iterations 147
time step continuity errors : sum local = 1.71556e-08, global = -9.90172e-11, cumulative = 0.000208494
ExecutionTime = 9.62 s  ClockTime = 10 s

Courant Number mean: 0.117068 max: 0.97641
Interface Courant Number mean: 0.00797766 max: 0.436891
deltaT = 0.000699331
Time = 0.38951

PIMPLE: iteration 1
smoothSolver:  Solving for alpha.water, Initial residual = 0.00233203, Final residual = 4.41163e-10, No Iterations 3
Phase-1 volume fraction = 0.123333  Min(alpha.water) = -9.07573e-09  Max(alpha.water) = 1
MULES: Correcting alpha.water
MULES: Correcting alpha.water
Phase-1 volume fraction = 0.123332  Min(alpha.water) = -3.77885e-06  Max(alpha.water) = 1.00001
DICPCG:  Solving for p_rgh, Initial residual = 0.0400582, Final residual = 0.00160501, No Iterations 2
time step continuity errors : sum local = 0.000332207, global = 5.31245e-06, cumulative = 0.000213807
DICPCG:  Solving for p_rgh, Initial residual = 0.00182471, Final residual = 8.61435e-05, No Iterations 11
time step continuity errors : sum local = 1.76332e-05, global = 1.73962e-06, cumulative = 0.000215546
DICPCG:  Solving for p_rgh, Initial residual = 0.000227719, Final residual = 8.31025e-08, No Iterations 146
time step continuity errors : sum local = 1.70047e-08, global = 4.67885e-11, cumulative = 0.000215546
ExecutionTime = 9.64 s  ClockTime = 10 s

Courant Number mean: 0.116344 max: 0.955973
Interface Courant Number mean: 0.00777954 max: 0.439097
deltaT = 0.000699331
Time = 0.390209

PIMPLE: iteration 1
smoothSolver:  Solving for alpha.water, Initial residual = 0.0023181, Final residual = 4.79264e-10, No Iterations 3
Phase-1 volume fraction = 0.123325  Min(alpha.water) = -9.0001e-09  Max(alpha.water) = 1
MULES: Correcting alpha.water
MULES: Correcting alpha.water
Phase-1 volume fraction = 0.123325  Min(alpha.water) = -3.34079e-06  Max(alpha.water) = 1.00001
DICPCG:  Solving for p_rgh, Initial residual = 0.0428016, Final residual = 0.00184244, No Iterations 2
time step continuity errors : sum local = 0.000384971, global = 4.85847e-06, cumulative = 0.000220405
DICPCG:  Solving for p_rgh, Initial residual = 0.00204789, Final residual = 0.000102203, No Iterations 12
time step continuity errors : sum local = 2.10857e-05, global = 1.96532e-06, cumulative = 0.00022237
DICPCG:  Solving for p_rgh, Initial residual = 0.000258779, Final residual = 8.40546e-08, No Iterations 146
time step continuity errors : sum local = 1.73343e-08, global = 9.8234e-11, cumulative = 0.00022237
ExecutionTime = 9.67 s  ClockTime = 10 s

Courant Number mean: 0.115627 max: 0.933388
Interface Courant Number mean: 0.00786289 max: 0.441864
deltaT = 0.000699331
Time = 0.390909

PIMPLE: iteration 1
smoothSolver:  Solving for alpha.water, Initial residual = 0.0023016, Final residual = 5.20947e-10, No Iterations 3
Phase-1 volume fraction = 0.123318  Min(alpha.water) = -8.92464e-09  Max(alpha.water) = 1
MULES: Correcting alpha.water
MULES: Correcting alpha.water
Phase-1 volume fraction = 0.123318  Min(alpha.water) = -2.6022e-06  Max(alpha.water) = 1.00001
DICPCG:  Solving for p_rgh, Initial residual = 0.0423269, Final residual = 0.00176725, No Iterations 2
time step continuity errors : sum local = 0.00036277, global = 3.84784e-06, cumulative = 0.000226218
DICPCG:  Solving for p_rgh, Initial residual = 0.00197198, Final residual = 8.97591e-05, No Iterations 11
time step continuity errors : sum local = 1.82374e-05, global = 9.50751e-07, cumulative = 0.000227169
DICPCG:  Solving for p_rgh, Initial residual = 0.000246312, Final residual = 9.15389e-08, No Iterations 145
time step continuity errors : sum local = 1.85914e-08, global = -5.60681e-10, cumulative = 0.000227168
ExecutionTime = 9.7 s  ClockTime = 10 s

Courant Number mean: 0.11492 max: 0.909277
Interface Courant Number mean: 0.00778369 max: 0.441523
deltaT = 0.000757609
Time = 0.391666

PIMPLE: iteration 1
smoothSolver:  Solving for alpha.water, Initial residual = 0.00249, Final residual = 8.87988e-10, No Iterations 3
Phase-1 volume fraction = 0.123311  Min(alpha.water) = -8.8435e-09  Max(alpha.water) = 1
MULES: Correcting alpha.water
MULES: Correcting alpha.water
Phase-1 volume fraction = 0.123311  Min(alpha.water) = -2.85718e-06  Max(alpha.water) = 1.00002
DICPCG:  Solving for p_rgh, Initial residual = 0.0441479, Final residual = 0.00178767, No Iterations 2
time step continuity errors : sum local = 0.000421246, global = 8.53375e-06, cumulative = 0.000235702
DICPCG:  Solving for p_rgh, Initial residual = 0.00198825, Final residual = 9.54428e-05, No Iterations 11
time step continuity errors : sum local = 2.22757e-05, global = 2.34855e-06, cumulative = 0.000238051
DICPCG:  Solving for p_rgh, Initial residual = 0.000259377, Final residual = 9.17594e-08, No Iterations 146
time step continuity errors : sum local = 2.14045e-08, global = 2.83169e-10, cumulative = 0.000238051
ExecutionTime = 9.73 s  ClockTime = 10 s

Courant Number mean: 0.123672 max: 0.965235
Interface Courant Number mean: 0.00845154 max: 0.479928
deltaT = 0.000757609
Time = 0.392424

PIMPLE: iteration 1
smoothSolver:  Solving for alpha.water, Initial residual = 0.00246298, Final residual = 9.16261e-10, No Iterations 3
Phase-1 volume fraction = 0.123306  Min(alpha.water) = -8.76303e-09  Max(alpha.water) = 1
MULES: Correcting alpha.water
MULES: Correcting alpha.water
Phase-1 volume fraction = 0.123306  Min(alpha.water) = -2.27358e-06  Max(alpha.water) = 1.00002
DICPCG:  Solving for p_rgh, Initial residual = 0.0456497, Final residual = 0.00184037, No Iterations 2
time step continuity errors : sum local = 0.000432713, global = 6.87328e-06, cumulative = 0.000244924
DICPCG:  Solving for p_rgh, Initial residual = 0.00204892, Final residual = 9.82988e-05, No Iterations 13
time step continuity errors : sum local = 2.2865e-05, global = 2.49838e-06, cumulative = 0.000247423
DICPCG:  Solving for p_rgh, Initial residual = 0.000267599, Final residual = 8.19651e-08, No Iterations 145
time step continuity errors : sum local = 1.90543e-08, global = -5.13453e-11, cumulative = 0.000247422
ExecutionTime = 9.76 s  ClockTime = 10 s

Courant Number mean: 0.122862 max: 0.947308
Interface Courant Number mean: 0.00862888 max: 0.480989
deltaT = 0.000757609
Time = 0.393182

PIMPLE: iteration 1
smoothSolver:  Solving for alpha.water, Initial residual = 0.00243658, Final residual = 9.29501e-10, No Iterations 3
Phase-1 volume fraction = 0.123301  Min(alpha.water) = -8.68323e-09  Max(alpha.water) = 1
MULES: Correcting alpha.water
MULES: Correcting alpha.water
Phase-1 volume fraction = 0.123301  Min(alpha.water) = -1.64962e-06  Max(alpha.water) = 1.00001
DICPCG:  Solving for p_rgh, Initial residual = 0.045661, Final residual = 0.00186905, No Iterations 2
time step continuity errors : sum local = 0.000430571, global = 5.6574e-06, cumulative = 0.00025308
DICPCG:  Solving for p_rgh, Initial residual = 0.00207609, Final residual = 0.000100716, No Iterations 12
time step continuity errors : sum local = 2.29552e-05, global = 2.09052e-06, cumulative = 0.00025517
DICPCG:  Solving for p_rgh, Initial residual = 0.00027417, Final residual = 9.94284e-08, No Iterations 145
time step continuity errors : sum local = 2.26498e-08, global = 2.50671e-10, cumulative = 0.000255171
ExecutionTime = 9.78 s  ClockTime = 10 s

Courant Number mean: 0.122105 max: 0.926225
Interface Courant Number mean: 0.00846607 max: 0.481364
deltaT = 0.000757609
Time = 0.393939

PIMPLE: iteration 1
smoothSolver:  Solving for alpha.water, Initial residual = 0.00242176, Final residual = 9.21234e-10, No Iterations 3
Phase-1 volume fraction = 0.123297  Min(alpha.water) = -8.60411e-09  Max(alpha.water) = 1
MULES: Correcting alpha.water
MULES: Correcting alpha.water
Phase-1 volume fraction = 0.123296  Min(alpha.water) = -1.10434e-06  Max(alpha.water) = 1.00001
DICPCG:  Solving for p_rgh, Initial residual = 0.0444592, Final residual = 0.00181207, No Iterations 2
time step continuity errors : sum local = 0.000407809, global = 4.48477e-06, cumulative = 0.000259655
DICPCG:  Solving for p_rgh, Initial residual = 0.0020171, Final residual = 9.25603e-05, No Iterations 11
time step continuity errors : sum local = 2.06027e-05, global = 1.66151e-06, cumulative = 0.000261317
DICPCG:  Solving for p_rgh, Initial residual = 0.000265066, Final residual = 9.65574e-08, No Iterations 146
time step continuity errors : sum local = 2.1482e-08, global = -7.84023e-11, cumulative = 0.000261317
ExecutionTime = 9.81 s  ClockTime = 10 s

Courant Number mean: 0.121399 max: 0.902971
Interface Courant Number mean: 0.0085171 max: 0.492017
deltaT = 0.000757609
Time = 0.394697

PIMPLE: iteration 1
smoothSolver:  Solving for alpha.water, Initial residual = 0.00239931, Final residual = 9.12353e-10, No Iterations 3
Phase-1 volume fraction = 0.123293  Min(alpha.water) = -8.52565e-09  Max(alpha.water) = 1
MULES: Correcting alpha.water
MULES: Correcting alpha.water
Phase-1 volume fraction = 0.123293  Min(alpha.water) = -8.7261e-07  Max(alpha.water) = 1.00002
DICPCG:  Solving for p_rgh, Initial residual = 0.0453773, Final residual = 0.00193723, No Iterations 2
time step continuity errors : sum local = 0.00043165, global = 3.45594e-06, cumulative = 0.000264773
DICPCG:  Solving for p_rgh, Initial residual = 0.00214325, Final residual = 0.000104703, No Iterations 13
time step continuity errors : sum local = 2.3056e-05, global = 2.37337e-06, cumulative = 0.000267146
DICPCG:  Solving for p_rgh, Initial residual = 0.000277456, Final residual = 8.64545e-08, No Iterations 145
time step continuity errors : sum local = 1.90265e-08, global = -2.84397e-11, cumulative = 0.000267146
ExecutionTime = 9.84 s  ClockTime = 10 s

Courant Number mean: 0.120776 max: 0.878145
Interface Courant Number mean: 0.00818455 max: 0.487104
deltaT = 0.000757609
Time = 0.395454

PIMPLE: iteration 1
smoothSolver:  Solving for alpha.water, Initial residual = 0.00236897, Final residual = 9.20789e-10, No Iterations 3
Phase-1 volume fraction = 0.12329  Min(alpha.water) = -8.44787e-09  Max(alpha.water) = 1
MULES: Correcting alpha.water
MULES: Correcting alpha.water
Phase-1 volume fraction = 0.12329  Min(alpha.water) = -1.03749e-06  Max(alpha.water) = 1.00001
DICPCG:  Solving for p_rgh, Initial residual = 0.0455084, Final residual = 0.00185397, No Iterations 2
time step continuity errors : sum local = 0.000410876, global = 2.00322e-06, cumulative = 0.000269149
DICPCG:  Solving for p_rgh, Initial residual = 0.00205371, Final residual = 9.52255e-05, No Iterations 11
time step continuity errors : sum local = 2.08867e-05, global = 1.1245e-06, cumulative = 0.000270274
DICPCG:  Solving for p_rgh, Initial residual = 0.000264388, Final residual = 8.58047e-08, No Iterations 146
time step continuity errors : sum local = 1.88108e-08, global = -8.57518e-11, cumulative = 0.000270274
ExecutionTime = 9.86 s  ClockTime = 10 s

Courant Number mean: 0.120156 max: 0.853554
Interface Courant Number mean: 0.00819318 max: 0.483127
deltaT = 0.000757609
Time = 0.396212

PIMPLE: iteration 1
smoothSolver:  Solving for alpha.water, Initial residual = 0.0023447, Final residual = 8.48366e-10, No Iterations 3
Phase-1 volume fraction = 0.123287  Min(alpha.water) = -2.30148e-08  Max(alpha.water) = 1
MULES: Correcting alpha.water
MULES: Correcting alpha.water
Phase-1 volume fraction = 0.123287  Min(alpha.water) = -1.17901e-06  Max(alpha.water) = 1.00001
DICPCG:  Solving for p_rgh, Initial residual = 0.0462878, Final residual = 0.00192963, No Iterations 2
time step continuity errors : sum local = 0.000432277, global = 1.95578e-07, cumulative = 0.000270469
DICPCG:  Solving for p_rgh, Initial residual = 0.00211731, Final residual = 9.70432e-05, No Iterations 11
time step continuity errors : sum local = 2.15424e-05, global = 6.11852e-07, cumulative = 0.000271081
DICPCG:  Solving for p_rgh, Initial residual = 0.000267889, Final residual = 9.5993e-08, No Iterations 146
time step continuity errors : sum local = 2.12982e-08, global = -3.72499e-10, cumulative = 0.000271081
ExecutionTime = 9.89 s  ClockTime = 10 s

Courant Number mean: 0.119499 max: 0.829656
Interface Courant Number mean: 0.00840544 max: 0.491779
deltaT = 0.000757609
Time = 0.39697

PIMPLE: iteration 1
smoothSolver:  Solving for alpha.water, Initial residual = 0.00233728, Final residual = 8.0401e-10, No Iterations 3
Phase-1 volume fraction = 0.123285  Min(alpha.water) = -1.74329e-08  Max(alpha.water) = 1
MULES: Correcting alpha.water
MULES: Correcting alpha.water
Phase-1 volume fraction = 0.123284  Min(alpha.water) = -1.26398e-06  Max(alpha.water) = 1.00004
DICPCG:  Solving for p_rgh, Initial residual = 0.0451502, Final residual = 0.0017965, No Iterations 2
time step continuity errors : sum local = 0.00040618, global = -1.76841e-06, cumulative = 0.000269312
DICPCG:  Solving for p_rgh, Initial residual = 0.0019796, Final residual = 9.80771e-05, No Iterations 10
time step continuity errors : sum local = 2.20277e-05, global = 4.16004e-07, cumulative = 0.000269728
DICPCG:  Solving for p_rgh, Initial residual = 0.000269094, Final residual = 8.31262e-08, No Iterations 147
time step continuity errors : sum local = 1.86612e-08, global = -1.35316e-10, cumulative = 0.000269728
ExecutionTime = 9.92 s  ClockTime = 10 s

Courant Number mean: 0.11879 max: 0.804572
Interface Courant Number mean: 0.00835062 max: 0.489249
deltaT = 0.000757609
Time = 0.397727

PIMPLE: iteration 1
smoothSolver:  Solving for alpha.water, Initial residual = 0.00232164, Final residual = 7.99147e-10, No Iterations 3
Phase-1 volume fraction = 0.123282  Min(alpha.water) = -7.75658e-08  Max(alpha.water) = 1
MULES: Correcting alpha.water
MULES: Correcting alpha.water
Phase-1 volume fraction = 0.123282  Min(alpha.water) = -1.32899e-06  Max(alpha.water) = 1.00003
DICPCG:  Solving for p_rgh, Initial residual = 0.045142, Final residual = 0.0017449, No Iterations 2
time step continuity errors : sum local = 0.000408828, global = 1.92729e-06, cumulative = 0.000271656
DICPCG:  Solving for p_rgh, Initial residual = 0.00193473, Final residual = 9.45755e-05, No Iterations 13
time step continuity errors : sum local = 2.19897e-05, global = 2.44868e-06, cumulative = 0.000274104
DICPCG:  Solving for p_rgh, Initial residual = 0.000252561, Final residual = 9.68149e-08, No Iterations 144
time step continuity errors : sum local = 2.24981e-08, global = -1.21219e-10, cumulative = 0.000274104
ExecutionTime = 9.95 s  ClockTime = 10 s

Courant Number mean: 0.118122 max: 0.778408
Interface Courant Number mean: 0.00825183 max: 0.488213
deltaT = 0.000757609
Time = 0.398485

PIMPLE: iteration 1
smoothSolver:  Solving for alpha.water, Initial residual = 0.00229568, Final residual = 7.29731e-10, No Iterations 3
Phase-1 volume fraction = 0.123281  Min(alpha.water) = -6.83898e-08  Max(alpha.water) = 1
MULES: Correcting alpha.water
MULES: Correcting alpha.water
Phase-1 volume fraction = 0.123281  Min(alpha.water) = -1.36105e-06  Max(alpha.water) = 1.00003
DICPCG:  Solving for p_rgh, Initial residual = 0.0446508, Final residual = 0.00181358, No Iterations 2
time step continuity errors : sum local = 0.000418089, global = 1.25464e-06, cumulative = 0.000275359
DICPCG:  Solving for p_rgh, Initial residual = 0.00199868, Final residual = 9.07918e-05, No Iterations 11
time step continuity errors : sum local = 2.07452e-05, global = 1.54483e-06, cumulative = 0.000276904
DICPCG:  Solving for p_rgh, Initial residual = 0.000247346, Final residual = 8.97915e-08, No Iterations 146
time step continuity errors : sum local = 2.05056e-08, global = -3.88616e-10, cumulative = 0.000276903
ExecutionTime = 9.97 s  ClockTime = 10 s

Courant Number mean: 0.117529 max: 0.751888
Interface Courant Number mean: 0.00827755 max: 0.488601
deltaT = 0.000757609
Time = 0.399242

PIMPLE: iteration 1
smoothSolver:  Solving for alpha.water, Initial residual = 0.00227735, Final residual = 6.36976e-10, No Iterations 3
Phase-1 volume fraction = 0.123279  Min(alpha.water) = -6.17217e-08  Max(alpha.water) = 1
MULES: Correcting alpha.water
MULES: Correcting alpha.water
Phase-1 volume fraction = 0.123279  Min(alpha.water) = -1.37233e-06  Max(alpha.water) = 1.00003
DICPCG:  Solving for p_rgh, Initial residual = 0.0436812, Final residual = 0.00180294, No Iterations 2
time step continuity errors : sum local = 0.000408923, global = 7.30348e-07, cumulative = 0.000277634
DICPCG:  Solving for p_rgh, Initial residual = 0.00198252, Final residual = 9.848e-05, No Iterations 10
time step continuity errors : sum local = 2.21714e-05, global = 6.11614e-07, cumulative = 0.000278245
DICPCG:  Solving for p_rgh, Initial residual = 0.000258968, Final residual = 9.10332e-08, No Iterations 97
time step continuity errors : sum local = 2.04853e-08, global = 1.58913e-09, cumulative = 0.000278247
ExecutionTime = 9.99 s  ClockTime = 10 s

Courant Number mean: 0.116944 max: 0.725296
Interface Courant Number mean: 0.00847852 max: 0.488593
deltaT = 0.000757609
Time = 0.4

PIMPLE: iteration 1
smoothSolver:  Solving for alpha.water, Initial residual = 0.00226109, Final residual = 5.97702e-10, No Iterations 3
Phase-1 volume fraction = 0.123278  Min(alpha.water) = -2.05725e-08  Max(alpha.water) = 1
MULES: Correcting alpha.water
MULES: Correcting alpha.water
Phase-1 volume fraction = 0.123278  Min(alpha.water) = -1.3677e-06  Max(alpha.water) = 1.00002
DICPCG:  Solving for p_rgh, Initial residual = 0.0421089, Final residual = 0.00172901, No Iterations 2
time step continuity errors : sum local = 0.000397446, global = 3.0362e-08, cumulative = 0.000278277
DICPCG:  Solving for p_rgh, Initial residual = 0.00191015, Final residual = 8.39449e-05, No Iterations 11
time step continuity errors : sum local = 1.91403e-05, global = 1.16441e-06, cumulative = 0.000279442
DICPCG:  Solving for p_rgh, Initial residual = 0.000234997, Final residual = 8.49609e-08, No Iterations 146
time step continuity errors : sum local = 1.93633e-08, global = -3.58456e-10, cumulative = 0.000279441
ExecutionTime = 10.04 s  ClockTime = 10 s

End

Finalising parallel run
